Averaging data over frequency... 
 Input file: /home/jpark/gpcalclone/examples/timecal_vlba7mm/bm462m.q.tdcal.3C273.uvf 
 Output file: /home/jpark/gpcalclone/examples/timecal_vlba7mm/bm462m.q.tdcal.3C273.IFavg.uvf
Averaging data over frequency... 
 Input file: /home/jpark/gpcalclone/examples/timecal_vlba7mm/bm462m.q.tdcal.3C279.uvf 
 Output file: /home/jpark/gpcalclone/examples/timecal_vlba7mm/bm462m.q.tdcal.3C279.IFavg.uvf
Averaging data over frequency... 
 Input file: /home/jpark/gpcalclone/examples/timecal_vlba7mm/bm462m.q.tdcal.3C345.uvf 
 Output file: /home/jpark/gpcalclone/examples/timecal_vlba7mm/bm462m.q.tdcal.3C345.IFavg.uvf
Averaging data over frequency... 
 Input file: /home/jpark/gpcalclone/examples/timecal_vlba7mm/bm462m.q.tdcal.1633+382.uvf 
 Output file: /home/jpark/gpcalclone/examples/timecal_vlba7mm/bm462m.q.tdcal.1633+382.IFavg.uvf
Averaging data over frequency... 
 Input file: /home/jpark/gpcalclone/examples/timecal_vlba7mm/bm462m.q.tdcal.3C454.3.uvf 
 Output file: /home/jpark/gpcalclone/examples/timecal_vlba7mm/bm462m.q.tdcal.3C454.3.IFavg.uvf
Averaging data over frequency... 
 Input file: /home/jpark/gpcalclone/examples/timecal_vlba7mm/bm462m.q.tdcal.CTA102.uvf 
 Output file: /home/jpark/gpcalclone/examples/timecal_vlba7mm/bm462m.q.tdcal.CTA102.IFavg.uvf
Averaging data over frequency... 
 Input file: /home/jpark/gpcalclone/examples/timecal_vlba7mm/bm462m.q.tdcal.3C273.uvf 
 Output file: /home/jpark/gpcalclone/examples/timecal_vlba7mm/bm462m.q.tdcal.3C273.IFavg.uvf
Averaging data over frequency... 
 Input file: /home/jpark/gpcalclone/examples/timecal_vlba7mm/bm462m.q.tdcal.3C279.uvf 
 Output file: /home/jpark/gpcalclone/examples/timecal_vlba7mm/bm462m.q.tdcal.3C279.IFavg.uvf
Averaging data over frequency... 
 Input file: /home/jpark/gpcalclone/examples/timecal_vlba7mm/bm462m.q.tdcal.3C345.uvf 
 Output file: /home/jpark/gpcalclone/examples/timecal_vlba7mm/bm462m.q.tdcal.3C345.IFavg.uvf
Averaging data over frequency... 
 Input file: /home/jpark/gpcalclone/examples/timecal_vlba7mm/bm462m.q.tdcal.1633+382.uvf 
 Output file: /home/jpark/gpcalclone/examples/timecal_vlba7mm/bm462m.q.tdcal.1633+382.IFavg.uvf
Averaging data over frequency... 
 Input file: /home/jpark/gpcalclone/examples/timecal_vlba7mm/bm462m.q.tdcal.3C454.3.uvf 
 Output file: /home/jpark/gpcalclone/examples/timecal_vlba7mm/bm462m.q.tdcal.3C454.3.IFavg.uvf
Averaging data over frequency... 
 Input file: /home/jpark/gpcalclone/examples/timecal_vlba7mm/bm462m.q.tdcal.CTA102.uvf 
 Output file: /home/jpark/gpcalclone/examples/timecal_vlba7mm/bm462m.q.tdcal.CTA102.IFavg.uvf

Getting data for 6 sources for 1 IFs...
FITLD2: Task FITLD  (release of 31DEC23) begins
FITLD2: Found 3C273    observed on 08-DEC-2018
FITLD2: Create 3C273       .EDIT  .   1 (UV)  on disk  1  cno    4
FITLD2: UVFDAT at record           1
FITLD2: Index table matches visibility count, assuming it is good
FITLD2: Image=3C273     (UV)         Filename=3C273       .EDIT  .   1
FITLD2: Telescope=VLBA               Receiver=VLBA
FITLD2: Observer=BM462M              User #=  711
FITLD2: Observ. date=08-DEC-2018     Map date=21-JAN-2025
FITLD2: # visibilities      7621     Sort order  TB
FITLD2: Rand axes: UU-L  VV-L  WW-L  SUBARRAY  TIME1  INTTIM  ANTENNA1
FITLD2:            ANTENNA2
FITLD2: ----------------------------------------------------------------
FITLD2: Type    Pixels   Coord value      at Pixel    Coord incr   Rotat
FITLD2: COMPLEX      3   1.0000000E+00        1.00  1.000000E+00    0.00
FITLD2: STOKES       4  -1.0000000E+00        1.00 -1.000000E+00    0.00
FITLD2: FREQ         1   4.3115500E+10        1.00  2.560000E+08    0.00
FITLD2: IF           1   1.0000000E+00        1.00  1.000000E+00    0.00
FITLD2: RA           1    12 29 06.699729     1.00      3600.000    0.00
FITLD2: DEC          1    02 03 08.598280     1.00      3600.000    0.00
FITLD2: ----------------------------------------------------------------
FITLD2: Coordinate equinox 2000.00
FITLD2: Rest freq      0.000         Vel type: OPTICAL wrt YOU
FITLD2: Alt ref. value  0.00000E+00  wrt pixel    0.00
FITLD2: Cals applied:    0 DOCAL   0 DOBAND   1 DOPOL
FITLD2: Maximum version number of extension files of type HI is   1
FITLD2: Maximum version number of extension files of type NX is   1
FITLD2: Maximum version number of extension files of type FQ is   1
FITLD2: Maximum version number of extension files of type AN is   1
FITLD2: Appears to have ended successfully
FITLD2: localhos 31DEC23 TST: Cpu=      0.1  Real=      0  IO=         5
FITLD2: Task FITLD  (release of 31DEC23) begins
FITLD2: Found 3C279    observed on 08-DEC-2018
FITLD2: Create 3C279       .EDIT  .   1 (UV)  on disk  1  cno    4
FITLD2: UVFDAT at record           1
FITLD2: Index table matches visibility count, assuming it is good
FITLD2: Image=3C279     (UV)         Filename=3C279       .EDIT  .   1
FITLD2: Telescope=VLBA               Receiver=VLBA
FITLD2: Observer=BM462M              User #=  711
FITLD2: Observ. date=08-DEC-2018     Map date=21-JAN-2025
FITLD2: # visibilities      7885     Sort order  TB
FITLD2: Rand axes: UU-L  VV-L  WW-L  SUBARRAY  TIME1  INTTIM  ANTENNA1
FITLD2:            ANTENNA2
FITLD2: ----------------------------------------------------------------
FITLD2: Type    Pixels   Coord value      at Pixel    Coord incr   Rotat
FITLD2: COMPLEX      3   1.0000000E+00        1.00  1.000000E+00    0.00
FITLD2: STOKES       4  -1.0000000E+00        1.00 -1.000000E+00    0.00
FITLD2: FREQ         1   4.3115500E+10        1.00  2.560000E+08    0.00
FITLD2: IF           1   1.0000000E+00        1.00  1.000000E+00    0.00
FITLD2: RA           1    12 56 11.166567     1.00      3600.000    0.00
FITLD2: DEC          1   -05 47 21.524811     1.00      3600.000    0.00
FITLD2: ----------------------------------------------------------------
FITLD2: Coordinate equinox 2000.00
FITLD2: Rest freq      0.000         Vel type: OPTICAL wrt YOU
FITLD2: Alt ref. value  0.00000E+00  wrt pixel    0.00
FITLD2: Cals applied:    0 DOCAL   0 DOBAND   1 DOPOL
FITLD2: Maximum version number of extension files of type HI is   1
FITLD2: Maximum version number of extension files of type NX is   1
FITLD2: Maximum version number of extension files of type FQ is   1
FITLD2: Maximum version number of extension files of type AN is   1
FITLD2: Appears to have ended successfully
FITLD2: localhos 31DEC23 TST: Cpu=      0.1  Real=      0  IO=         5
FITLD2: Task FITLD  (release of 31DEC23) begins
FITLD2: Found 3C345    observed on 08-DEC-2018
FITLD2: Create 3C345       .EDIT  .   1 (UV)  on disk  1  cno    4
FITLD2: UVFDAT at record           1
FITLD2: Index table matches visibility count, assuming it is good
FITLD2: Image=3C345     (UV)         Filename=3C345       .EDIT  .   1
FITLD2: Telescope=VLBA               Receiver=VLBA
FITLD2: Observer=BM462M              User #=  711
FITLD2: Observ. date=08-DEC-2018     Map date=21-JAN-2025
FITLD2: # visibilities      8762     Sort order  TB
LOGFILE FOR USER  711 GETTING LARGE: USE PRTMSG AND CLRMSG NOW!         
FITLD2: Rand axes: UU-L  VV-L  WW-L  SUBARRAY  TIME1  INTTIM  ANTENNA1
FITLD2:            ANTENNA2
FITLD2: ----------------------------------------------------------------
FITLD2: Type    Pixels   Coord value      at Pixel    Coord incr   Rotat
FITLD2: COMPLEX      3   1.0000000E+00        1.00  1.000000E+00    0.00
FITLD2: STOKES       4  -1.0000000E+00        1.00 -1.000000E+00    0.00
FITLD2: FREQ         1   4.3115500E+10        1.00  2.560000E+08    0.00
FITLD2: IF           1   1.0000000E+00        1.00  1.000000E+00    0.00
FITLD2: RA           1    16 42 58.809963     1.00      3600.000    0.00
FITLD2: DEC          1    39 48 36.994019     1.00      3600.000    0.00
FITLD2: ----------------------------------------------------------------
FITLD2: Coordinate equinox 2000.00
FITLD2: Rest freq      0.000         Vel type: OPTICAL wrt YOU
FITLD2: Alt ref. value  0.00000E+00  wrt pixel    0.00
FITLD2: Cals applied:    0 DOCAL   0 DOBAND   1 DOPOL
FITLD2: Maximum version number of extension files of type HI is   1
FITLD2: Maximum version number of extension files of type NX is   1
FITLD2: Maximum version number of extension files of type FQ is   1
FITLD2: Maximum version number of extension files of type AN is   1
FITLD2: Appears to have ended successfully
FITLD2: localhos 31DEC23 TST: Cpu=      0.1  Real=      0  IO=         5
FITLD2: Task FITLD  (release of 31DEC23) begins
FITLD2: Found 1633+382 observed on 08-DEC-2018
FITLD2: Create 1633+382    .EDIT  .   1 (UV)  on disk  1  cno    4
FITLD2: UVFDAT at record           1
FITLD2: Index table matches visibility count, assuming it is good
FITLD2: Image=1633+382  (UV)         Filename=1633+382    .EDIT  .   1
FITLD2: Telescope=VLBA               Receiver=VLBA
FITLD2: Observer=BM462M              User #=  711
FITLD2: Observ. date=08-DEC-2018     Map date=21-JAN-2025
FITLD2: # visibilities      9829     Sort order  TB
FITLD2: Rand axes: UU-L  VV-L  WW-L  SUBARRAY  TIME1  INTTIM  ANTENNA1
FITLD2:            ANTENNA2
FITLD2: ----------------------------------------------------------------
FITLD2: Type    Pixels   Coord value      at Pixel    Coord incr   Rotat
FITLD2: COMPLEX      3   1.0000000E+00        1.00  1.000000E+00    0.00
FITLD2: STOKES       4  -1.0000000E+00        1.00 -1.000000E+00    0.00
FITLD2: FREQ         1   4.3115500E+10        1.00  2.560000E+08    0.00
FITLD2: IF           1   1.0000000E+00        1.00  1.000000E+00    0.00
FITLD2: RA           1    16 35 15.492975     1.00      3600.000    0.00
FITLD2: DEC          1    38 08 04.500430     1.00      3600.000    0.00
FITLD2: ----------------------------------------------------------------
FITLD2: Coordinate equinox 2000.00
FITLD2: Rest freq      0.000         Vel type: OPTICAL wrt YOU
FITLD2: Alt ref. value  0.00000E+00  wrt pixel    0.00
FITLD2: Cals applied:    0 DOCAL   0 DOBAND   1 DOPOL
FITLD2: Maximum version number of extension files of type HI is   1
FITLD2: Maximum version number of extension files of type NX is   1
FITLD2: Maximum version number of extension files of type FQ is   1
FITLD2: Maximum version number of extension files of type AN is   1
FITLD2: Appears to have ended successfully
FITLD2: localhos 31DEC23 TST: Cpu=      0.1  Real=      0  IO=         5
FITLD2: Task FITLD  (release of 31DEC23) begins
FITLD2: Found 3C454.3  observed on 08-DEC-2018
FITLD2: Create 3C454.3     .EDIT  .   1 (UV)  on disk  1  cno    4
FITLD2: UVFDAT at record           1
FITLD2: Index table matches visibility count, assuming it is good
FITLD2: Image=3C454.3   (UV)         Filename=3C454.3     .EDIT  .   1
FITLD2: Telescope=VLBA               Receiver=VLBA
FITLD2: Observer=BM462M              User #=  711
FITLD2: Observ. date=08-DEC-2018     Map date=21-JAN-2025
FITLD2: # visibilities     12224     Sort order  TB
FITLD2: Rand axes: UU-L  VV-L  WW-L  SUBARRAY  TIME1  INTTIM  ANTENNA1
FITLD2:            ANTENNA2
FITLD2: ----------------------------------------------------------------
FITLD2: Type    Pixels   Coord value      at Pixel    Coord incr   Rotat
FITLD2: COMPLEX      3   1.0000000E+00        1.00  1.000000E+00    0.00
FITLD2: STOKES       4  -1.0000000E+00        1.00 -1.000000E+00    0.00
FITLD2: FREQ         1   4.3115500E+10        1.00  2.560000E+08    0.00
FITLD2: IF           1   1.0000000E+00        1.00  1.000000E+00    0.00
FITLD2: RA           1    22 53 57.747936     1.00      3600.000    0.00
FITLD2: DEC          1    16 08 53.560928     1.00      3600.000    0.00
FITLD2: ----------------------------------------------------------------
FITLD2: Coordinate equinox 2000.00
FITLD2: Rest freq      0.000         Vel type: OPTICAL wrt YOU
FITLD2: Alt ref. value  0.00000E+00  wrt pixel    0.00
FITLD2: Cals applied:    0 DOCAL   0 DOBAND   1 DOPOL
FITLD2: Maximum version number of extension files of type HI is   1
FITLD2: Maximum version number of extension files of type NX is   1
FITLD2: Maximum version number of extension files of type FQ is   1
FITLD2: Maximum version number of extension files of type AN is   1
FITLD2: Appears to have ended successfully
FITLD2: localhos 31DEC23 TST: Cpu=      0.1  Real=      0  IO=         5
FITLD2: Task FITLD  (release of 31DEC23) begins
FITLD2: Found CTA102   observed on 08-DEC-2018
FITLD2: Create CTA102      .EDIT  .   1 (UV)  on disk  1  cno    4
FITLD2: UVFDAT at record           1
FITLD2: Index table matches visibility count, assuming it is good
FITLD2: Image=CTA102    (UV)         Filename=CTA102      .EDIT  .   1
FITLD2: Telescope=VLBA               Receiver=VLBA
FITLD2: Observer=BM462M              User #=  711
FITLD2: Observ. date=08-DEC-2018     Map date=21-JAN-2025
FITLD2: # visibilities     10225     Sort order  TB
FITLD2: Rand axes: UU-L  VV-L  WW-L  SUBARRAY  TIME1  INTTIM  ANTENNA1
FITLD2:            ANTENNA2
FITLD2: ----------------------------------------------------------------
FITLD2: Type    Pixels   Coord value      at Pixel    Coord incr   Rotat
FITLD2: COMPLEX      3   1.0000000E+00        1.00  1.000000E+00    0.00
FITLD2: STOKES       4  -1.0000000E+00        1.00 -1.000000E+00    0.00
FITLD2: FREQ         1   4.3115500E+10        1.00  2.560000E+08    0.00
FITLD2: IF           1   1.0000000E+00        1.00  1.000000E+00    0.00
FITLD2: RA           1    22 32 36.408905     1.00      3600.000    0.00
FITLD2: DEC          1    11 43 50.903938     1.00      3600.000    0.00
FITLD2: ----------------------------------------------------------------
FITLD2: Coordinate equinox 2000.00
FITLD2: Rest freq      0.000         Vel type: OPTICAL wrt YOU
FITLD2: Alt ref. value  0.00000E+00  wrt pixel    0.00
FITLD2: Cals applied:    0 DOCAL   0 DOBAND   1 DOPOL
FITLD2: Maximum version number of extension files of type HI is   1
FITLD2: Maximum version number of extension files of type NX is   1
FITLD2: Maximum version number of extension files of type FQ is   1
FITLD2: Maximum version number of extension files of type AN is   1
FITLD2: Appears to have ended successfully
FITLD2: localhos 31DEC23 TST: Cpu=      0.1  Real=      0  IO=         5

Making CLEAN models for Stokes Q & U maps using multiple cores...

uvfits file: /home/jpark/gpcalclone/examples/timecal_vlba7mm/bm462m.q.tdcal.3C273.IFavg.uvf, CLEAN mask: /home/jpark/gpcalclone/examples/timecal_vlba7mm/bm462m.q.tdcal.3C273.win, save file: /home/jpark/gpcalclone/examples/timecal_vlba7mm/bm462m.q.tdcal.3C273.allIF.q,u
uvfits file: /home/jpark/gpcalclone/examples/timecal_vlba7mm/bm462m.q.tdcal.3C273.IFavg.uvf, CLEAN mask: /home/jpark/gpcalclone/examples/timecal_vlba7mm/bm462m.q.tdcal.3C273.win, save file: /home/jpark/gpcalclone/examples/timecal_vlba7mm/bm462m.q.tdcal.3C273.allIF.q,u
uvfits file: /home/jpark/gpcalclone/examples/timecal_vlba7mm/bm462m.q.tdcal.3C279.IFavg.uvf, CLEAN mask: /home/jpark/gpcalclone/examples/timecal_vlba7mm/bm462m.q.tdcal.3C279.win, save file: /home/jpark/gpcalclone/examples/timecal_vlba7mm/bm462m.q.tdcal.3C279.allIF.q,u
uvfits file: /home/jpark/gpcalclone/examples/timecal_vlba7mm/bm462m.q.tdcal.3C279.IFavg.uvf, CLEAN mask: /home/jpark/gpcalclone/examples/timecal_vlba7mm/bm462m.q.tdcal.3C279.win, save file: /home/jpark/gpcalclone/examples/timecal_vlba7mm/bm462m.q.tdcal.3C279.allIF.q,u
uvfits file: /home/jpark/gpcalclone/examples/timecal_vlba7mm/bm462m.q.tdcal.3C345.IFavg.uvf, CLEAN mask: /home/jpark/gpcalclone/examples/timecal_vlba7mm/bm462m.q.tdcal.3C345.win, save file: /home/jpark/gpcalclone/examples/timecal_vlba7mm/bm462m.q.tdcal.3C345.allIF.q,u
uvfits file: /home/jpark/gpcalclone/examples/timecal_vlba7mm/bm462m.q.tdcal.3C345.IFavg.uvf, CLEAN mask: /home/jpark/gpcalclone/examples/timecal_vlba7mm/bm462m.q.tdcal.3C345.win, save file: /home/jpark/gpcalclone/examples/timecal_vlba7mm/bm462m.q.tdcal.3C345.allIF.q,u
uvfits file: /home/jpark/gpcalclone/examples/timecal_vlba7mm/bm462m.q.tdcal.1633+382.IFavg.uvf, CLEAN mask: /home/jpark/gpcalclone/examples/timecal_vlba7mm/bm462m.q.tdcal.1633+382.win, save file: /home/jpark/gpcalclone/examples/timecal_vlba7mm/bm462m.q.tdcal.1633+382.allIF.q,u
uvfits file: /home/jpark/gpcalclone/examples/timecal_vlba7mm/bm462m.q.tdcal.1633+382.IFavg.uvf, CLEAN mask: /home/jpark/gpcalclone/examples/timecal_vlba7mm/bm462m.q.tdcal.1633+382.win, save file: /home/jpark/gpcalclone/examples/timecal_vlba7mm/bm462m.q.tdcal.1633+382.allIF.q,u
uvfits file: /home/jpark/gpcalclone/examples/timecal_vlba7mm/bm462m.q.tdcal.3C454.3.IFavg.uvf, CLEAN mask: /home/jpark/gpcalclone/examples/timecal_vlba7mm/bm462m.q.tdcal.3C454.3.win, save file: /home/jpark/gpcalclone/examples/timecal_vlba7mm/bm462m.q.tdcal.3C454.3.allIF.q,u
uvfits file: /home/jpark/gpcalclone/examples/timecal_vlba7mm/bm462m.q.tdcal.3C454.3.IFavg.uvf, CLEAN mask: /home/jpark/gpcalclone/examples/timecal_vlba7mm/bm462m.q.tdcal.3C454.3.win, save file: /home/jpark/gpcalclone/examples/timecal_vlba7mm/bm462m.q.tdcal.3C454.3.allIF.q,u
uvfits file: /home/jpark/gpcalclone/examples/timecal_vlba7mm/bm462m.q.tdcal.CTA102.IFavg.uvf, CLEAN mask: /home/jpark/gpcalclone/examples/timecal_vlba7mm/bm462m.q.tdcal.CTA102.win, save file: /home/jpark/gpcalclone/examples/timecal_vlba7mm/bm462m.q.tdcal.CTA102.allIF.q,u
uvfits file: /home/jpark/gpcalclone/examples/timecal_vlba7mm/bm462m.q.tdcal.CTA102.IFavg.uvf, CLEAN mask: /home/jpark/gpcalclone/examples/timecal_vlba7mm/bm462m.q.tdcal.CTA102.win, save file: /home/jpark/gpcalclone/examples/timecal_vlba7mm/bm462m.q.tdcal.CTA102.allIF.q,u
FITLD2: Task FITLD  (release of 31DEC23) begins
FITLD2: Found 3C273    observed on 08-DEC-2018
FITLD2: Create 3C273       .EDIT  .   1 (UV)  on disk  1  cno    4
FITLD2: UVFDAT at record           1
FITLD2: Index table matches visibility count, assuming it is good
FITLD2: Image=3C273     (UV)         Filename=3C273       .EDIT  .   1
FITLD2: Telescope=VLBA               Receiver=VLBA
FITLD2: Observer=BM462M              User #=  711
FITLD2: Observ. date=08-DEC-2018     Map date=21-JAN-2025
FITLD2: # visibilities      7621     Sort order  TB
FITLD2: Rand axes: UU-L  VV-L  WW-L  SUBARRAY  TIME1  INTTIM  ANTENNA1
FITLD2:            ANTENNA2
FITLD2: ----------------------------------------------------------------
FITLD2: Type    Pixels   Coord value      at Pixel    Coord incr   Rotat
FITLD2: COMPLEX      3   1.0000000E+00        1.00  1.000000E+00    0.00
FITLD2: STOKES       4  -1.0000000E+00        1.00 -1.000000E+00    0.00
FITLD2: FREQ         1   4.3115500E+10        1.00  2.560000E+08    0.00
FITLD2: IF           1   1.0000000E+00        1.00  1.000000E+00    0.00
FITLD2: RA           1    12 29 06.699729     1.00      3600.000    0.00
FITLD2: DEC          1    02 03 08.598280     1.00      3600.000    0.00
FITLD2: ----------------------------------------------------------------
FITLD2: Coordinate equinox 2000.00
FITLD2: Rest freq      0.000         Vel type: OPTICAL wrt YOU
FITLD2: Alt ref. value  0.00000E+00  wrt pixel    0.00
FITLD2: Cals applied:    0 DOCAL   0 DOBAND   1 DOPOL
FITLD2: Maximum version number of extension files of type HI is   1
FITLD2: Maximum version number of extension files of type NX is   1
FITLD2: Maximum version number of extension files of type FQ is   1
FITLD2: Maximum version number of extension files of type AN is   1
FITLD2: Appears to have ended successfully
FITLD2: localhos 31DEC23 TST: Cpu=      0.1  Real=      0  IO=         5
FITLD2: Task FITLD  (release of 31DEC23) begins
FITLD2: Create FITLD       .TEMP  .   1 (MA)  on disk  1  cno    5
FITLD2: Rename 3C273       .QMAP  .   1 (MA)  on disk 1 cno    5
FITLD2: Image=3C273     (MA)         Filename=3C273       .QMAP  .   1
FITLD2: Telescope=VLBA               Receiver=VLBA
FITLD2: Observer=BM462M              User #=  711
FITLD2: Observ. date=08-DEC-2018     Map date=21-JAN-2025
FITLD2: Minimum=-6.91704094E-01      Maximum= 3.59697223E+00 JY/BEAM
FITLD2: ----------------------------------------------------------------
FITLD2: Type    Pixels   Coord value      at Pixel    Coord incr   Rotat
FITLD2: RA---SIN  1024    12 29 06.699729   512.00     -0.000020    0.00
FITLD2: DEC--SIN  1024    02 03 08.598280   513.00      0.000020    0.00
FITLD2: FREQ         1   4.3115500E+10        1.00  2.560000E+08    0.00
FITLD2: STOKES       1   1.0000000E+00        1.00  1.000000E+00    0.00
FITLD2: ----------------------------------------------------------------
FITLD2: Coordinate equinox 2000.00
FITLD2: Map type=NORMAL              Number of iterations=     305
FITLD2: Conv size= 0.00047 X 0.00021   Position angle=  -3.34
FITLD2: Maximum version number of extension files of type HI is   1
FITLD2: Maximum version number of extension files of type CC is   1
FITLD2: Appears to have ended successfully
FITLD2: localhos 31DEC23 TST: Cpu=      0.0  Real=      0  IO=         8
UVSUB2: Task UVSUB  (release of 31DEC23) begins
UVSUB2: You are using a non-standard program
UVSUB2: Using Clean Component source model
UVSUB2: FACSET: 0.159111 Jy found from 305 components
UVSUB2: Create 3C273       .UVSUB .   1 (UV)  on disk  1  cno    6
UVSUB2: VISDFT: Begin DFT component subtraction
UVSUB2: VISDFT: fields 1 - 1 chns 1 - 1 in 1 CC models
UVSUB2: VISDFT: Model components of type Point
UVSUB2: QINIT: did a GET  of      5120 Kwords, OFF   17481938964061
UVSUB2: I Polarization model processed
UVSUB2: VISDFT at visibility number           1
UVSUB2: Model computation is   100 percent complete
UVSUB2: Copied FQ file from vol/cno/vers  1    4   1 to  1    6   1
UVSUB2: Copied AN file from vol/cno/vers  1    4   1 to  1    6   1
UVSUB2: Appears to have ended successfully
UVSUB2: localhos 31DEC23 TST: Cpu=      0.1  Real=      0  IO=        10
FITLD2: Task FITLD  (release of 31DEC23) begins
FITLD2: Create FITLD       .TEMP  .   1 (MA)  on disk  1  cno    5
FITLD2: Rename 3C273       .UMAP  .   1 (MA)  on disk 1 cno    5
FITLD2: Image=3C273     (MA)         Filename=3C273       .UMAP  .   1
FITLD2: Telescope=VLBA               Receiver=VLBA
FITLD2: Observer=BM462M              User #=  711
FITLD2: Observ. date=08-DEC-2018     Map date=21-JAN-2025
FITLD2: Minimum=-6.99371755E-01      Maximum= 3.60442233E+00 JY/BEAM
FITLD2: ----------------------------------------------------------------
FITLD2: Type    Pixels   Coord value      at Pixel    Coord incr   Rotat
FITLD2: RA---SIN  1024    12 29 06.699729   512.00     -0.000020    0.00
FITLD2: DEC--SIN  1024    02 03 08.598280   513.00      0.000020    0.00
FITLD2: FREQ         1   4.3115500E+10        1.00  2.560000E+08    0.00
FITLD2: STOKES       1   1.0000000E+00        1.00  1.000000E+00    0.00
FITLD2: ----------------------------------------------------------------
FITLD2: Coordinate equinox 2000.00
FITLD2: Map type=NORMAL              Number of iterations=     256
FITLD2: Conv size= 0.00047 X 0.00021   Position angle=  -3.34
FITLD2: Maximum version number of extension files of type HI is   1
FITLD2: Maximum version number of extension files of type CC is   1
FITLD2: Appears to have ended successfully
FITLD2: localhos 31DEC23 TST: Cpu=      0.0  Real=      0  IO=         8
UVSUB2: Task UVSUB  (release of 31DEC23) begins
UVSUB2: You are using a non-standard program
UVSUB2: Using Clean Component source model
UVSUB2: FACSET: 0.013433 Jy found from 256 components
UVSUB2: Create 3C273       .UVSUB .   1 (UV)  on disk  1  cno    6
LOGFILE FOR USER  711 GETTING LARGE: USE PRTMSG AND CLRMSG NOW!         
UVSUB2: VISDFT: Begin DFT component subtraction
UVSUB2: VISDFT: fields 1 - 1 chns 1 - 1 in 1 CC models
UVSUB2: VISDFT: Model components of type Point
UVSUB2: QINIT: did a GET  of      5120 Kwords, OFF   16186506153565
UVSUB2: I Polarization model processed
UVSUB2: VISDFT at visibility number           1
UVSUB2: Model computation is   100 percent complete
UVSUB2: Copied FQ file from vol/cno/vers  1    4   1 to  1    6   1
UVSUB2: Copied AN file from vol/cno/vers  1    4   1 to  1    6   1
UVSUB2: Appears to have ended successfully
UVSUB2: localhos 31DEC23 TST: Cpu=      0.1  Real=      0  IO=        10
FITLD2: Task FITLD  (release of 31DEC23) begins
FITLD2: Found 3C279    observed on 08-DEC-2018
FITLD2: Create 3C279       .EDIT  .   1 (UV)  on disk  1  cno    4
FITLD2: UVFDAT at record           1
FITLD2: Index table matches visibility count, assuming it is good
FITLD2: Image=3C279     (UV)         Filename=3C279       .EDIT  .   1
FITLD2: Telescope=VLBA               Receiver=VLBA
FITLD2: Observer=BM462M              User #=  711
FITLD2: Observ. date=08-DEC-2018     Map date=21-JAN-2025
FITLD2: # visibilities      7885     Sort order  TB
FITLD2: Rand axes: UU-L  VV-L  WW-L  SUBARRAY  TIME1  INTTIM  ANTENNA1
FITLD2:            ANTENNA2
FITLD2: ----------------------------------------------------------------
FITLD2: Type    Pixels   Coord value      at Pixel    Coord incr   Rotat
FITLD2: COMPLEX      3   1.0000000E+00        1.00  1.000000E+00    0.00
FITLD2: STOKES       4  -1.0000000E+00        1.00 -1.000000E+00    0.00
FITLD2: FREQ         1   4.3115500E+10        1.00  2.560000E+08    0.00
FITLD2: IF           1   1.0000000E+00        1.00  1.000000E+00    0.00
FITLD2: RA           1    12 56 11.166567     1.00      3600.000    0.00
FITLD2: DEC          1   -05 47 21.524811     1.00      3600.000    0.00
FITLD2: ----------------------------------------------------------------
FITLD2: Coordinate equinox 2000.00
FITLD2: Rest freq      0.000         Vel type: OPTICAL wrt YOU
FITLD2: Alt ref. value  0.00000E+00  wrt pixel    0.00
FITLD2: Cals applied:    0 DOCAL   0 DOBAND   1 DOPOL
FITLD2: Maximum version number of extension files of type HI is   1
FITLD2: Maximum version number of extension files of type NX is   1
FITLD2: Maximum version number of extension files of type FQ is   1
FITLD2: Maximum version number of extension files of type AN is   1
FITLD2: Appears to have ended successfully
FITLD2: localhos 31DEC23 TST: Cpu=      0.1  Real=      0  IO=         5
FITLD2: Task FITLD  (release of 31DEC23) begins
FITLD2: Create FITLD       .TEMP  .   1 (MA)  on disk  1  cno    5
FITLD2: Rename 3C279       .QMAP  .   1 (MA)  on disk 1 cno    5
FITLD2: Image=3C279     (MA)         Filename=3C279       .QMAP  .   1
FITLD2: Telescope=VLBA               Receiver=VLBA
FITLD2: Observer=BM462M              User #=  711
FITLD2: Observ. date=08-DEC-2018     Map date=21-JAN-2025
FITLD2: Minimum=-1.14923155E+00      Maximum= 9.36067295E+00 JY/BEAM
FITLD2: ----------------------------------------------------------------
FITLD2: Type    Pixels   Coord value      at Pixel    Coord incr   Rotat
FITLD2: RA---SIN  1024    12 56 11.166567   512.00     -0.000020    0.00
FITLD2: DEC--SIN  1024   -05 47 21.524811   513.00      0.000020    0.00
FITLD2: FREQ         1   4.3115500E+10        1.00  2.560000E+08    0.00
FITLD2: STOKES       1   1.0000000E+00        1.00  1.000000E+00    0.00
FITLD2: ----------------------------------------------------------------
FITLD2: Coordinate equinox 2000.00
FITLD2: Map type=NORMAL              Number of iterations=     245
FITLD2: Conv size= 0.00048 X 0.00020   Position angle=  -5.69
FITLD2: Maximum version number of extension files of type HI is   1
FITLD2: Maximum version number of extension files of type CC is   1
FITLD2: Appears to have ended successfully
FITLD2: localhos 31DEC23 TST: Cpu=      0.1  Real=      1  IO=         8
0020   Position angle=  -5.69
UVSUB2: Task UVSUB  (release of 31DEC23) begins
UVSUB2: You are using a non-standard program
UVSUB2: Using Clean Component source model
UVSUB2: FACSET: 0.064123 Jy found from 245 components
UVSUB2: Create 3C279       .UVSUB .   1 (UV)  on disk  1  cno    6
UVSUB2: VISDFT: Begin DFT component subtraction
UVSUB2: VISDFT: fields 1 - 1 chns 1 - 1 in 1 CC models
UVSUB2: VISDFT: Model components of type Point
UVSUB2: QINIT: did a GET  of      5120 Kwords, OFF   16845352930909
UVSUB2: I Polarization model processed
UVSUB2: VISDFT at visibility number           1
UVSUB2: Model computation is   100 percent complete
UVSUB2: Copied FQ file from vol/cno/vers  1    4   1 to  1    6   1
UVSUB2: Copied AN file from vol/cno/vers  1    4   1 to  1    6   1
UVSUB2: Appears to have ended successfully
UVSUB2: localhos 31DEC23 TST: Cpu=      0.1  Real=      0  IO=        10
FITLD2: Task FITLD  (release of 31DEC23) begins
FITLD2: Create FITLD       .TEMP  .   1 (MA)  on disk  1  cno    5
FITLD2: Rename 3C279       .UMAP  .   1 (MA)  on disk 1 cno    5
FITLD2: Image=3C279     (MA)         Filename=3C279       .UMAP  .   1
FITLD2: Telescope=VLBA               Receiver=VLBA
FITLD2: Observer=BM462M              User #=  711
FITLD2: Observ. date=08-DEC-2018     Map date=21-JAN-2025
FITLD2: Minimum=-1.09649706E+00      Maximum= 9.33498192E+00 JY/BEAM
FITLD2: ----------------------------------------------------------------
FITLD2: Type    Pixels   Coord value      at Pixel    Coord incr   Rotat
FITLD2: RA---SIN  1024    12 56 11.166567   512.00     -0.000020    0.00
FITLD2: DEC--SIN  1024   -05 47 21.524811   513.00      0.000020    0.00
FITLD2: FREQ         1   4.3115500E+10        1.00  2.560000E+08    0.00
FITLD2: STOKES       1   1.0000000E+00        1.00  1.000000E+00    0.00
FITLD2: ----------------------------------------------------------------
FITLD2: Coordinate equinox 2000.00
FITLD2: Map type=NORMAL              Number of iterations=     220
FITLD2: Conv size= 0.00048 X 0.00020   Position angle=  -5.69
FITLD2: Maximum version number of extension files of type HI is   1
FITLD2: Maximum version number of extension files of type CC is   1
FITLD2: Appears to have ended successfully
FITLD2: localhos 31DEC23 TST: Cpu=      0.1  Real=      0  IO=         8
UVSUB2: Task UVSUB  (release of 31DEC23) begins
UVSUB2: You are using a non-standard program
UVSUB2: Using Clean Component source model
UVSUB2: FACSET: 0.771992 Jy found from 220 components
UVSUB2: Create 3C279       .UVSUB .   1 (UV)  on disk  1  cno    6
UVSUB2: VISDFT: Begin DFT component subtraction
UVSUB2: VISDFT: fields 1 - 1 chns 1 - 1 in 1 CC models
UVSUB2: VISDFT: Model components of type Point
UVSUB2: QINIT: did a GET  of      5120 Kwords, OFF   16659892604509
UVSUB2: I Polarization model processed
UVSUB2: VISDFT at visibility number           1
UVSUB2: Model computation is   100 percent complete
UVSUB2: Copied FQ file from vol/cno/vers  1    4   1 to  1    6   1
UVSUB2: Copied AN file from vol/cno/vers  1    4   1 to  1    6   1
UVSUB2: Appears to have ended successfully
UVSUB2: localhos 31DEC23 TST: Cpu=      0.1  Real=      0  IO=        10
FITLD2: Task FITLD  (release of 31DEC23) begins
FITLD2: Found 3C345    observed on 08-DEC-2018
FITLD2: Create 3C345       .EDIT  .   1 (UV)  on disk  1  cno    4
FITLD2: UVFDAT at record           1
FITLD2: Index table matches visibility count, assuming it is good
FITLD2: Image=3C345     (UV)         Filename=3C345       .EDIT  .   1
FITLD2: Telescope=VLBA               Receiver=VLBA
FITLD2: Observer=BM462M              User #=  711
FITLD2: Observ. date=08-DEC-2018     Map date=21-JAN-2025
FITLD2: # visibilities      8762     Sort order  TB
FITLD2: Rand axes: UU-L  VV-L  WW-L  SUBARRAY  TIME1  INTTIM  ANTENNA1
FITLD2:            ANTENNA2
FITLD2: ----------------------------------------------------------------
FITLD2: Type    Pixels   Coord value      at Pixel    Coord incr   Rotat
FITLD2: COMPLEX      3   1.0000000E+00        1.00  1.000000E+00    0.00
FITLD2: STOKES       4  -1.0000000E+00        1.00 -1.000000E+00    0.00
FITLD2: FREQ         1   4.3115500E+10        1.00  2.560000E+08    0.00
FITLD2: IF           1   1.0000000E+00        1.00  1.000000E+00    0.00
FITLD2: RA           1    16 42 58.809963     1.00      3600.000    0.00
FITLD2: DEC          1    39 48 36.994019     1.00      3600.000    0.00
FITLD2: ----------------------------------------------------------------
FITLD2: Coordinate equinox 2000.00
FITLD2: Rest freq      0.000         Vel type: OPTICAL wrt YOU
FITLD2: Alt ref. value  0.00000E+00  wrt pixel    0.00
FITLD2: Cals applied:    0 DOCAL   0 DOBAND   1 DOPOL
FITLD2: Maximum version number of extension files of type HI is   1
FITLD2: Maximum version number of extension files of type NX is   1
FITLD2: Maximum version number of extension files of type FQ is   1
FITLD2: Maximum version number of extension files of type AN is   1
FITLD2: Appears to have ended successfully
FITLD2: localhos 31DEC23 TST: Cpu=      0.0  Real=      0  IO=         5
FITLD2: Task FITLD  (release of 31DEC23) begins
FITLD2: Create FITLD       .TEMP  .   1 (MA)  on disk  1  cno    5
FITLD2: Rename 3C345       .QMAP  .   1 (MA)  on disk 1 cno    5
FITLD2: Image=3C345     (MA)         Filename=3C345       .QMAP  .   1
FITLD2: Telescope=VLBA               Receiver=VLBA
FITLD2: Observer=BM462M              User #=  711
FITLD2: Observ. date=08-DEC-2018     Map date=21-JAN-2025
FITLD2: Minimum=-2.50045538E-01      Maximum= 2.15909624E+00 JY/BEAM
FITLD2: ----------------------------------------------------------------
FITLD2: Type    Pixels   Coord value      at Pixel    Coord incr   Rotat
FITLD2: RA---SIN  1024    16 42 58.809963   512.00     -0.000020    0.00
FITLD2: DEC--SIN  1024    39 48 36.994019   513.00      0.000020    0.00
FITLD2: FREQ         1   4.3115500E+10        1.00  2.560000E+08    0.00
FITLD2: STOKES       1   1.0000000E+00        1.00  1.000000E+00    0.00
FITLD2: ----------------------------------------------------------------
FITLD2: Coordinate equinox 2000.00
FITLD2: Map type=NORMAL              Number of iterations=     390
FITLD2: Conv size= 0.00034 X 0.00020   Position angle= -17.33
FITLD2: Maximum version number of extension files of type HI is   1
FITLD2: Maximum version number of extension files of type CC is   1
FITLD2: Appears to have ended successfully
FITLD2: localhos 31DEC23 TST: Cpu=      0.0  Real=      0  IO=         8
UVSUB2: Task UVSUB  (release of 31DEC23) begins
UVSUB2: You are using a non-standard program
UVSUB2: Using Clean Component source model
UVSUB2: FACSET: -0.049360 Jy found from 390 components
UVSUB2: Create 3C345       .UVSUB .   1 (UV)  on disk  1  cno    6
UVSUB2: VISDFT: Begin DFT component subtraction
UVSUB2: VISDFT: fields 1 - 1 chns 1 - 1 in 1 CC models
UVSUB2: VISDFT: Model components of type Point
UVSUB2: QINIT: did a GET  of      5120 Kwords, OFF   17182834495069
UVSUB2: I Polarization model processed
UVSUB2: VISDFT at visibility number           1
UVSUB2: Model computation is   100 percent complete
UVSUB2: Copied FQ file from vol/cno/vers  1    4   1 to  1    6   1
UVSUB2: Copied AN file from vol/cno/vers  1    4   1 to  1    6   1
UVSUB2: Appears to have ended successfully
UVSUB2: localhos 31DEC23 TST: Cpu=      0.1  Real=      0  IO=        10
FITLD2: Task FITLD  (release of 31DEC23) begins
FITLD2: Create FITLD       .TEMP  .   1 (MA)  on disk  1  cno    5
FITLD2: Rename 3C345       .UMAP  .   1 (MA)  on disk 1 cno    5
FITLD2: Image=3C345     (MA)         Filename=3C345       .UMAP  .   1
FITLD2: Telescope=VLBA               Receiver=VLBA
FITLD2: Observer=BM462M              User #=  711
FITLD2: Observ. date=08-DEC-2018     Map date=21-JAN-2025
FITLD2: Minimum=-2.41991684E-01      Maximum= 2.15412760E+00 JY/BEAM
FITLD2: ----------------------------------------------------------------
FITLD2: Type    Pixels   Coord value      at Pixel    Coord incr   Rotat
FITLD2: RA---SIN  1024    16 42 58.809963   512.00     -0.000020    0.00
FITLD2: DEC--SIN  1024    39 48 36.994019   513.00      0.000020    0.00
FITLD2: FREQ         1   4.3115500E+10        1.00  2.560000E+08    0.00
FITLD2: STOKES       1   1.0000000E+00        1.00  1.000000E+00    0.00
FITLD2: ----------------------------------------------------------------
FITLD2: Coordinate equinox 2000.00
FITLD2: Map type=NORMAL              Number of iterations=     375
FITLD2: Conv size= 0.00034 X 0.00020   Position angle= -17.33
FITLD2: Maximum version number of extension files of type HI is   1
FITLD2: Maximum version number of extension files of type CC is   1
FITLD2: Appears to have ended successfully
FITLD2: localhos 31DEC23 TST: Cpu=      0.0  Real=      0  IO=         8
LOGFILE FOR USER  711 GETTING LARGE: USE PRTMSG AND CLRMSG NOW!         
UVSUB2: Task UVSUB  (release of 31DEC23) begins
UVSUB2: You are using a non-standard program
UVSUB2: Using Clean Component source model
UVSUB2: FACSET: 0.078614 Jy found from 375 components
UVSUB2: Create 3C345       .UVSUB .   1 (UV)  on disk  1  cno    6
UVSUB2: VISDFT: Begin DFT component subtraction
UVSUB2: VISDFT: fields 1 - 1 chns 1 - 1 in 1 CC models
UVSUB2: VISDFT: Model components of type Point
UVSUB2: QINIT: did a GET  of      5120 Kwords, OFF   16404642729565
UVSUB2: I Polarization model processed
UVSUB2: VISDFT at visibility number           1
UVSUB2: Model computation is   100 percent complete
UVSUB2: Copied FQ file from vol/cno/vers  1    4   1 to  1    6   1
UVSUB2: Copied AN file from vol/cno/vers  1    4   1 to  1    6   1
UVSUB2: Appears to have ended successfully
UVSUB2: localhos 31DEC23 TST: Cpu=      0.1  Real=      0  IO=        10
FITLD2: Task FITLD  (release of 31DEC23) begins
FITLD2: Found 1633+382 observed on 08-DEC-2018
FITLD2: Create 1633+382    .EDIT  .   1 (UV)  on disk  1  cno    4
FITLD2: UVFDAT at record           1
FITLD2: Index table matches visibility count, assuming it is good
FITLD2: Image=1633+382  (UV)         Filename=1633+382    .EDIT  .   1
FITLD2: Telescope=VLBA               Receiver=VLBA
FITLD2: Observer=BM462M              User #=  711
FITLD2: Observ. date=08-DEC-2018     Map date=21-JAN-2025
FITLD2: # visibilities      9829     Sort order  TB
FITLD2: Rand axes: UU-L  VV-L  WW-L  SUBARRAY  TIME1  INTTIM  ANTENNA1
FITLD2:            ANTENNA2
FITLD2: ----------------------------------------------------------------
FITLD2: Type    Pixels   Coord value      at Pixel    Coord incr   Rotat
FITLD2: COMPLEX      3   1.0000000E+00        1.00  1.000000E+00    0.00
FITLD2: STOKES       4  -1.0000000E+00        1.00 -1.000000E+00    0.00
FITLD2: FREQ         1   4.3115500E+10        1.00  2.560000E+08    0.00
FITLD2: IF           1   1.0000000E+00        1.00  1.000000E+00    0.00
FITLD2: RA           1    16 35 15.492975     1.00      3600.000    0.00
FITLD2: DEC          1    38 08 04.500430     1.00      3600.000    0.00
FITLD2: ----------------------------------------------------------------
FITLD2: Coordinate equinox 2000.00
FITLD2: Rest freq      0.000         Vel type: OPTICAL wrt YOU
FITLD2: Alt ref. value  0.00000E+00  wrt pixel    0.00
FITLD2: Cals applied:    0 DOCAL   0 DOBAND   1 DOPOL
FITLD2: Maximum version number of extension files of type HI is   1
FITLD2: Maximum version number of extension files of type NX is   1
FITLD2: Maximum version number of extension files of type FQ is   1
FITLD2: Maximum version number of extension files of type AN is   1
FITLD2: Appears to have ended successfully
FITLD2: localhos 31DEC23 TST: Cpu=      0.1  Real=      0  IO=         5
FITLD2: Task FITLD  (release of 31DEC23) begins
FITLD2: Create FITLD       .TEMP  .   1 (MA)  on disk  1  cno    5
FITLD2: Rename 1633+382    .QMAP  .   1 (MA)  on disk 1 cno    5
FITLD2: Image=1633+382  (MA)         Filename=1633+382    .QMAP  .   1
FITLD2: Telescope=VLBA               Receiver=VLBA
FITLD2: Observer=BM462M              User #=  711
FITLD2: Observ. date=08-DEC-2018     Map date=21-JAN-2025
FITLD2: Minimum=-3.25337946E-01      Maximum= 3.34434152E+00 JY/BEAM
FITLD2: ----------------------------------------------------------------
FITLD2: Type    Pixels   Coord value      at Pixel    Coord incr   Rotat
FITLD2: RA---SIN  1024    16 35 15.492975   512.00     -0.000020    0.00
FITLD2: DEC--SIN  1024    38 08 04.500430   513.00      0.000020    0.00
FITLD2: FREQ         1   4.3115500E+10        1.00  2.560000E+08    0.00
FITLD2: STOKES       1   1.0000000E+00        1.00  1.000000E+00    0.00
FITLD2: ----------------------------------------------------------------
FITLD2: Coordinate equinox 2000.00
FITLD2: Map type=NORMAL              Number of iterations=     194
FITLD2: Conv size= 0.00035 X 0.00019   Position angle= -13.31
FITLD2: Maximum version number of extension files of type HI is   1
FITLD2: Maximum version number of extension files of type CC is   1
FITLD2: Appears to have ended successfully
FITLD2: localhos 31DEC23 TST: Cpu=      0.0  Real=      0  IO=         8
UVSUB2: Task UVSUB  (release of 31DEC23) begins
UVSUB2: You are using a non-standard program
UVSUB2: Using Clean Component source model
UVSUB2: FACSET: -0.054267 Jy found from 194 components
UVSUB2: Create 1633+382    .UVSUB .   1 (UV)  on disk  1  cno    6
UVSUB2: VISDFT: Begin DFT component subtraction
UVSUB2: VISDFT: fields 1 - 1 chns 1 - 1 in 1 CC models
UVSUB2: VISDFT: Model components of type Point
UVSUB2: QINIT: did a GET  of      5120 Kwords, OFF   17178400067165
UVSUB2: I Polarization model processed
UVSUB2: VISDFT at visibility number           1
UVSUB2: Model computation is   100 percent complete
UVSUB2: Copied FQ file from vol/cno/vers  1    4   1 to  1    6   1
UVSUB2: Copied AN file from vol/cno/vers  1    4   1 to  1    6   1
UVSUB2: Appears to have ended successfully
UVSUB2: localhos 31DEC23 TST: Cpu=      0.1  Real=      0  IO=        10
FITLD2: Task FITLD  (release of 31DEC23) begins
FITLD2: Create FITLD       .TEMP  .   1 (MA)  on disk  1  cno    5
FITLD2: Rename 1633+382    .UMAP  .   1 (MA)  on disk 1 cno    5
FITLD2: Image=1633+382  (MA)         Filename=1633+382    .UMAP  .   1
FITLD2: Telescope=VLBA               Receiver=VLBA
FITLD2: Observer=BM462M              User #=  711
FITLD2: Observ. date=08-DEC-2018     Map date=21-JAN-2025
FITLD2: Minimum=-3.17632794E-01      Maximum= 3.34376836E+00 JY/BEAM
FITLD2: ----------------------------------------------------------------
FITLD2: Type    Pixels   Coord value      at Pixel    Coord incr   Rotat
FITLD2: RA---SIN  1024    16 35 15.492975   512.00     -0.000020    0.00
FITLD2: DEC--SIN  1024    38 08 04.500430   513.00      0.000020    0.00
FITLD2: FREQ         1   4.3115500E+10        1.00  2.560000E+08    0.00
FITLD2: STOKES       1   1.0000000E+00        1.00  1.000000E+00    0.00
FITLD2: ----------------------------------------------------------------
FITLD2: Coordinate equinox 2000.00
FITLD2: Map type=NORMAL              Number of iterations=     202
FITLD2: Conv size= 0.00035 X 0.00019   Position angle= -13.31
FITLD2: Maximum version number of extension files of type HI is   1
FITLD2: Maximum version number of extension files of type CC is   1
FITLD2: Appears to have ended successfully
FITLD2: localhos 31DEC23 TST: Cpu=      0.1  Real=      0  IO=         8
UVSUB2: Task UVSUB  (release of 31DEC23) begins
UVSUB2: You are using a non-standard program
UVSUB2: Using Clean Component source model
UVSUB2: FACSET: 0.045012 Jy found from 202 components
UVSUB2: Create 1633+382    .UVSUB .   1 (UV)  on disk  1  cno    6
UVSUB2: VISDFT: Begin DFT component subtraction
UVSUB2: VISDFT: fields 1 - 1 chns 1 - 1 in 1 CC models
UVSUB2: VISDFT: Model components of type Point
UVSUB2: QINIT: did a GET  of      5120 Kwords, OFF   17335479897693
UVSUB2: I Polarization model processed
UVSUB2: VISDFT at visibility number           1
UVSUB2: Model computation is   100 percent complete
UVSUB2: Copied FQ file from vol/cno/vers  1    4   1 to  1    6   1
UVSUB2: Copied AN file from vol/cno/vers  1    4   1 to  1    6   1
UVSUB2: Appears to have ended successfully
UVSUB2: localhos 31DEC23 TST: Cpu=      0.1  Real=      0  IO=        10
FITLD2: Task FITLD  (release of 31DEC23) begins
FITLD2: Found 3C454.3  observed on 08-DEC-2018
FITLD2: Create 3C454.3     .EDIT  .   1 (UV)  on disk  1  cno    4
FITLD2: UVFDAT at record           1
FITLD2: Index table matches visibility count, assuming it is good
FITLD2: Image=3C454.3   (UV)         Filename=3C454.3     .EDIT  .   1
FITLD2: Telescope=VLBA               Receiver=VLBA
FITLD2: Observer=BM462M              User #=  711
FITLD2: Observ. date=08-DEC-2018     Map date=21-JAN-2025
FITLD2: # visibilities     12224     Sort order  TB
FITLD2: Rand axes: UU-L  VV-L  WW-L  SUBARRAY  TIME1  INTTIM  ANTENNA1
FITLD2:            ANTENNA2
FITLD2: ----------------------------------------------------------------
FITLD2: Type    Pixels   Coord value      at Pixel    Coord incr   Rotat
FITLD2: COMPLEX      3   1.0000000E+00        1.00  1.000000E+00    0.00
FITLD2: STOKES       4  -1.0000000E+00        1.00 -1.000000E+00    0.00
FITLD2: FREQ         1   4.3115500E+10        1.00  2.560000E+08    0.00
FITLD2: IF           1   1.0000000E+00        1.00  1.000000E+00    0.00
FITLD2: RA           1    22 53 57.747936     1.00      3600.000    0.00
FITLD2: DEC          1    16 08 53.560928     1.00      3600.000    0.00
FITLD2: ----------------------------------------------------------------
FITLD2: Coordinate equinox 2000.00
FITLD2: Rest freq      0.000         Vel type: OPTICAL wrt YOU
FITLD2: Alt ref. value  0.00000E+00  wrt pixel    0.00
FITLD2: Cals applied:    0 DOCAL   0 DOBAND   1 DOPOL
FITLD2: Maximum version number of extension files of type HI is   1
FITLD2: Maximum version number of extension files of type NX is   1
FITLD2: Maximum version number of extension files of type FQ is   1
FITLD2: Maximum version number of extension files of type AN is   1
FITLD2: Appears to have ended successfully
FITLD2: localhos 31DEC23 TST: Cpu=      0.1  Real=      0  IO=         5
FITLD2: Task FITLD  (release of 31DEC23) begins
FITLD2: Create FITLD       .TEMP  .   1 (MA)  on disk  1  cno    5
FITLD2: Rename 3C454.3     .QMAP  .   1 (MA)  on disk 1 cno    5
FITLD2: Image=3C454.3   (MA)         Filename=3C454.3     .QMAP  .   1
FITLD2: Telescope=VLBA               Receiver=VLBA
FITLD2: Observer=BM462M              User #=  711
FITLD2: Observ. date=08-DEC-2018     Map date=21-JAN-2025
FITLD2: Minimum=-6.55527949E-01      Maximum= 4.31567717E+00 JY/BEAM
FITLD2: ----------------------------------------------------------------
FITLD2: Type    Pixels   Coord value      at Pixel    Coord incr   Rotat
FITLD2: RA---SIN  1024    22 53 57.747936   512.00     -0.000020    0.00
FITLD2: DEC--SIN  1024    16 08 53.560928   513.00      0.000020    0.00
FITLD2: FREQ         1   4.3115500E+10        1.00  2.560000E+08    0.00
FITLD2: STOKES       1   1.0000000E+00        1.00  1.000000E+00    0.00
FITLD2: ----------------------------------------------------------------
FITLD2: Coordinate equinox 2000.00
FITLD2: Map type=NORMAL              Number of iterations=     360
FITLD2: Conv size= 0.00043 X 0.00019   Position angle=  -4.97
FITLD2: Maximum version number of extension files of type HI is   1
FITLD2: Maximum version number of extension files of type CC is   1
FITLD2: Appears to have ended successfully
FITLD2: localhos 31DEC23 TST: Cpu=      0.1  Real=      0  IO=         8
UVSUB2: Task UVSUB  (release of 31DEC23) begins
UVSUB2: You are using a non-standard program
UVSUB2: Using Clean Component source model
UVSUB2: FACSET: 0.122120 Jy found from 360 components
UVSUB2: Create 3C454.3     .UVSUB .   1 (UV)  on disk  1  cno    6
UVSUB2: VISDFT: Begin DFT component subtraction
UVSUB2: VISDFT: fields 1 - 1 chns 1 - 1 in 1 CC models
UVSUB2: VISDFT: Model components of type Point
UVSUB2: QINIT: did a GET  of      5120 Kwords, OFF   15582125035101
UVSUB2: I Polarization model processed
UVSUB2: VISDFT at visibility number           1
UVSUB2: Model computation is   100 percent complete
UVSUB2: Copied FQ file from vol/cno/vers  1    4   1 to  1    6   1
UVSUB2: Copied AN file from vol/cno/vers  1    4   1 to  1    6   1
UVSUB2: Appears to have ended successfully
UVSUB2: localhos 31DEC23 TST: Cpu=      0.1  Real=      0  IO=        10
FITLD2: Task FITLD  (release of 31DEC23) begins
FITLD2: Create FITLD       .TEMP  .   1 (MA)  on disk  1  cno    5
FITLD2: Rename 3C454.3     .UMAP  .   1 (MA)  on disk 1 cno    5
FITLD2: Image=3C454.3   (MA)         Filename=3C454.3     .UMAP  .   1
FITLD2: Telescope=VLBA               Receiver=VLBA
FITLD2: Observer=BM462M              User #=  711
FITLD2: Observ. date=08-DEC-2018     Map date=21-JAN-2025
FITLD2: Minimum=-6.78303421E-01      Maximum= 4.33698559E+00 JY/BEAM
FITLD2: ----------------------------------------------------------------
FITLD2: Type    Pixels   Coord value      at Pixel    Coord incr   Rotat
FITLD2: RA---SIN  1024    22 53 57.747936   512.00     -0.000020    0.00
FITLD2: DEC--SIN  1024    16 08 53.560928   513.00      0.000020    0.00
FITLD2: FREQ         1   4.3115500E+10        1.00  2.560000E+08    0.00
FITLD2: STOKES       1   1.0000000E+00        1.00  1.000000E+00    0.00
FITLD2: ----------------------------------------------------------------
FITLD2: Coordinate equinox 2000.00
FITLD2: Map type=NORMAL              Number of iterations=     391
FITLD2: Conv size= 0.00043 X 0.00019   Position angle=  -4.97
FITLD2: Maximum version number of extension files of type HI is   1
FITLD2: Maximum version number of extension files of type CC is   1
FITLD2: Appears to have ended successfully
LOGFILE FOR USER  711 GETTING LARGE: USE PRTMSG AND CLRMSG NOW!         
FITLD2: localhos 31DEC23 TST: Cpu=      0.0  Real=      0  IO=         8
hos 31DEC23 TST: Cpu=      0.0  Real=      0  IO=         8
UVSUB2: Task UVSUB  (release of 31DEC23) begins
UVSUB2: You are using a non-standard program
UVSUB2: Using Clean Component source model
UVSUB2: FACSET: -0.213613 Jy found from 391 components
UVSUB2: Create 3C454.3     .UVSUB .   1 (UV)  on disk  1  cno    6
UVSUB2: VISDFT: Begin DFT component subtraction
UVSUB2: VISDFT: fields 1 - 1 chns 1 - 1 in 1 CC models
UVSUB2: VISDFT: Model components of type Point
UVSUB2: QINIT: did a GET  of      5120 Kwords, OFF   15452174487133
UVSUB2: I Polarization model processed
UVSUB2: VISDFT at visibility number           1
UVSUB2: Model computation is   100 percent complete
UVSUB2: Copied FQ file from vol/cno/vers  1    4   1 to  1    6   1
UVSUB2: Copied AN file from vol/cno/vers  1    4   1 to  1    6   1
UVSUB2: Appears to have ended successfully
UVSUB2: localhos 31DEC23 TST: Cpu=      0.1  Real=      0  IO=        10
FITLD2: Task FITLD  (release of 31DEC23) begins
FITLD2: Found CTA102   observed on 08-DEC-2018
FITLD2: Create CTA102      .EDIT  .   1 (UV)  on disk  1  cno    4
FITLD2: UVFDAT at record           1
FITLD2: Index table matches visibility count, assuming it is good
FITLD2: Image=CTA102    (UV)         Filename=CTA102      .EDIT  .   1
FITLD2: Telescope=VLBA               Receiver=VLBA
FITLD2: Observer=BM462M              User #=  711
FITLD2: Observ. date=08-DEC-2018     Map date=21-JAN-2025
FITLD2: # visibilities     10225     Sort order  TB
FITLD2: Rand axes: UU-L  VV-L  WW-L  SUBARRAY  TIME1  INTTIM  ANTENNA1
FITLD2:            ANTENNA2
FITLD2: ----------------------------------------------------------------
FITLD2: Type    Pixels   Coord value      at Pixel    Coord incr   Rotat
FITLD2: COMPLEX      3   1.0000000E+00        1.00  1.000000E+00    0.00
FITLD2: STOKES       4  -1.0000000E+00        1.00 -1.000000E+00    0.00
FITLD2: FREQ         1   4.3115500E+10        1.00  2.560000E+08    0.00
FITLD2: IF           1   1.0000000E+00        1.00  1.000000E+00    0.00
FITLD2: RA           1    22 32 36.408905     1.00      3600.000    0.00
FITLD2: DEC          1    11 43 50.903938     1.00      3600.000    0.00
FITLD2: ----------------------------------------------------------------
FITLD2: Coordinate equinox 2000.00
FITLD2: Rest freq      0.000         Vel type: OPTICAL wrt YOU
FITLD2: Alt ref. value  0.00000E+00  wrt pixel    0.00
FITLD2: Cals applied:    0 DOCAL   0 DOBAND   1 DOPOL
FITLD2: Maximum version number of extension files of type HI is   1
FITLD2: Maximum version number of extension files of type NX is   1
FITLD2: Maximum version number of extension files of type FQ is   1
FITLD2: Maximum version number of extension files of type AN is   1
FITLD2: Appears to have ended successfully
FITLD2: localhos 31DEC23 TST: Cpu=      0.1  Real=      0  IO=         5
have ended successfully
FITLD2: Task FITLD  (release of 31DEC23) begins
FITLD2: Create FITLD       .TEMP  .   1 (MA)  on disk  1  cno    5
FITLD2: Rename CTA102      .QMAP  .   1 (MA)  on disk 1 cno    5
FITLD2: Image=CTA102    (MA)         Filename=CTA102      .QMAP  .   1
FITLD2: Telescope=VLBA               Receiver=VLBA
FITLD2: Observer=BM462M              User #=  711
FITLD2: Observ. date=08-DEC-2018     Map date=21-JAN-2025
FITLD2: Minimum=-2.46069521E-01      Maximum= 2.29432607E+00 JY/BEAM
FITLD2: ----------------------------------------------------------------
FITLD2: Type    Pixels   Coord value      at Pixel    Coord incr   Rotat
FITLD2: RA---SIN  1024    22 32 36.408905   512.00     -0.000020    0.00
FITLD2: DEC--SIN  1024    11 43 50.903938   513.00      0.000020    0.00
FITLD2: FREQ         1   4.3115500E+10        1.00  2.560000E+08    0.00
FITLD2: STOKES       1   1.0000000E+00        1.00  1.000000E+00    0.00
FITLD2: ----------------------------------------------------------------
FITLD2: Coordinate equinox 2000.00
FITLD2: Map type=NORMAL              Number of iterations=     321
FITLD2: Conv size= 0.00043 X 0.00019   Position angle=  -4.41
FITLD2: Maximum version number of extension files of type HI is   1
FITLD2: Maximum version number of extension files of type CC is   1
FITLD2: Appears to have ended successfully
FITLD2: localhos 31DEC23 TST: Cpu=      0.1  Real=      0  IO=         8
UVSUB2: Task UVSUB  (release of 31DEC23) begins
UVSUB2: You are using a non-standard program
UVSUB2: Using Clean Component source model
UVSUB2: FACSET: -0.093046 Jy found from 321 components
UVSUB2: Create CTA102      .UVSUB .   1 (UV)  on disk  1  cno    6
UVSUB2: VISDFT: Begin DFT component subtraction
UVSUB2: VISDFT: fields 1 - 1 chns 1 - 1 in 1 CC models
UVSUB2: VISDFT: Model components of type Point
UVSUB2: QINIT: did a GET  of      5120 Kwords, OFF   16310380990045
UVSUB2: I Polarization model processed
UVSUB2: VISDFT at visibility number           1
UVSUB2: Model computation is   100 percent complete
UVSUB2: Copied FQ file from vol/cno/vers  1    4   1 to  1    6   1
UVSUB2: Copied AN file from vol/cno/vers  1    4   1 to  1    6   1
UVSUB2: Appears to have ended successfully
UVSUB2: localhos 31DEC23 TST: Cpu=      0.1  Real=      1  IO=        10
FITLD2: Task FITLD  (release of 31DEC23) begins
FITLD2: Create FITLD       .TEMP  .   1 (MA)  on disk  1  cno    5
FITLD2: Rename CTA102      .UMAP  .   1 (MA)  on disk 1 cno    5
FITLD2: Image=CTA102    (MA)         Filename=CTA102      .UMAP  .   1
FITLD2: Telescope=VLBA               Receiver=VLBA
FITLD2: Observer=BM462M              User #=  711
FITLD2: Observ. date=08-DEC-2018     Map date=21-JAN-2025
FITLD2: Minimum=-2.34740078E-01      Maximum= 2.29537964E+00 JY/BEAM
FITLD2: ----------------------------------------------------------------
FITLD2: Type    Pixels   Coord value      at Pixel    Coord incr   Rotat
FITLD2: RA---SIN  1024    22 32 36.408905   512.00     -0.000020    0.00
FITLD2: DEC--SIN  1024    11 43 50.903938   513.00      0.000020    0.00
FITLD2: FREQ         1   4.3115500E+10        1.00  2.560000E+08    0.00
FITLD2: STOKES       1   1.0000000E+00        1.00  1.000000E+00    0.00
FITLD2: ----------------------------------------------------------------
FITLD2: Coordinate equinox 2000.00
FITLD2: Map type=NORMAL              Number of iterations=     326
FITLD2: Conv size= 0.00043 X 0.00019   Position angle=  -4.41
FITLD2: Maximum version number of extension files of type HI is   1
FITLD2: Maximum version number of extension files of type CC is   1
FITLD2: Appears to have ended successfully
FITLD2: localhos 31DEC23 TST: Cpu=      0.0  Real=      0  IO=         8
UVSUB2: Task UVSUB  (release of 31DEC23) begins
UVSUB2: You are using a non-standard program
UVSUB2: Using Clean Component source model
UVSUB2: FACSET: 0.037233 Jy found from 326 components
UVSUB2: Create CTA102      .UVSUB .   1 (UV)  on disk  1  cno    6
UVSUB2: VISDFT: Begin DFT component subtraction
UVSUB2: VISDFT: fields 1 - 1 chns 1 - 1 in 1 CC models
UVSUB2: VISDFT: Model components of type Point
UVSUB2: QINIT: did a GET  of      5120 Kwords, OFF   16100487269981
UVSUB2: I Polarization model processed
UVSUB2: VISDFT at visibility number           1
UVSUB2: Model computation is   100 percent complete
UVSUB2: Copied FQ file from vol/cno/vers  1    4   1 to  1    6   1
UVSUB2: Copied AN file from vol/cno/vers  1    4   1 to  1    6   1
UVSUB2: Appears to have ended successfully
UVSUB2: localhos 31DEC23 TST: Cpu=      0.1  Real=      0  IO=        10

####################################################################
Time-dependent D-term correction mode...

56546 data from 6 source(s) will be used:

Source coordinates:
3C273: RA = 187.28 deg, Dec =  2.05 deg
3C279: RA = 194.05 deg, Dec = -5.79 deg
3C345: RA = 250.75 deg, Dec = 39.81 deg
1633+382: RA = 248.81 deg, Dec = 38.13 deg
3C454.3: RA = 343.49 deg, Dec = 16.15 deg
CTA102: RA = 338.15 deg, Dec = 11.73 deg

Antenna information:
BR: antenna mount = Cassegrain   , X = -2112065.30m, Y = -3705356.51m, Z =  4726813.63m
FD: antenna mount = Cassegrain   , X = -1324009.41m, Y = -5332181.96m, Z =  3231962.37m
HN: antenna mount = Cassegrain   , X =  1446374.77m, Y = -4447939.70m, Z =  4322306.21m
KP: antenna mount = Cassegrain   , X = -1995678.93m, Y = -5037317.70m, Z =  3357327.99m
LA: antenna mount = Cassegrain   , X = -1449752.67m, Y = -4975298.58m, Z =  3709123.82m
MK: antenna mount = Cassegrain   , X = -5464075.28m, Y = -2495247.75m, Z =  2148297.56m
NL: antenna mount = Cassegrain   , X =  -130872.60m, Y = -4762317.09m, Z =  4226850.99m
OV: antenna mount = Cassegrain   , X = -2409150.52m, Y = -4478573.09m, Z =  3838617.32m
PT: antenna mount = Cassegrain   , X = -1640954.03m, Y = -5014816.06m, Z =  3575411.75m
SC: antenna mount = Cassegrain   , X =  2607848.68m, Y = -5488069.49m, Z =  1932739.81m
 
Observation date = 2018-12-8

####################################################################
Processing IF 1...
####################################################################

Time-dependent D-term correction mode...
Iteration: 1/10

Processing scan 0001, time: 0/19:10:35-00/19:15:25, source: 3C279...
Processing scan 0002, time: 0/19:30:45-00/19:34:25, source: 1633+382...
Processing scan 0003, time: 0/19:34:44-00/19:37:25, source: 3C345...
Processing scan 0004, time: 0/20:05:44-00/20:09:15, source: 1633+382...
Processing scan 0005, time: 0/20:09:35-00/20:12:14, source: 3C345...
Processing scan 0006, time: 0/20:41:34-00/20:44:15, source: 1633+382...
Processing scan 0007, time: 0/20:44:24-00/20:47:15, source: 3C345...
Processing scan 0008, time: 0/21:14:34-00/21:17:05, source: 1633+382...
Processing scan 0009, time: 0/21:17:25-00/21:20:05, source: 3C345...
Processing scan 0010, time: 0/21:46:24-00/21:48:54, source: 1633+382...
Processing scan 0011, time: 0/21:49:14-00/21:52:05, source: 3C345...
Processing scan 0012, time: 0/22:15:35-00/22:18:54, source: CTA102...
Processing scan 0013, time: 0/22:19:14-00/22:23:54, source: 3C454.3...
Processing scan 0014, time: 0/22:29:14-00/22:31:55, source: 1633+382...
Processing scan 0015, time: 0/22:32:14-00/22:34:55, source: 3C345...
Processing scan 0016, time: 0/22:57:25-00/23:00:45, source: CTA102...
Processing scan 0017, time: 0/23:01:14-00/23:04:45, source: 3C454.3...
Processing scan 0018, time: 0/23:09:15-00/23:11:45, source: 1633+382...
Processing scan 0019, time: 0/23:12:05-00/23:14:45, source: 3C345...
Processing scan 0020, time: 0/23:36:55-00/23:39:44, source: CTA102...
Processing scan 0021, time: 0/23:40:05-00/23:43:45, source: 3C454.3...
Processing scan 0022, time: 0/23:49:05-00/23:51:44, source: 1633+382...
Processing scan 0023, time: 0/23:52:45-00/23:55:45, source: 3C345...
Processing scan 0024, time: 1/00:15:24-01/00:19:35, source: CTA102...
Processing scan 0025, time: 1/00:20:05-01/00:24:34, source: 3C454.3...
Processing scan 0026, time: 1/00:47:14-01/00:50:35, source: CTA102...
Processing scan 0027, time: 1/00:50:54-01/00:54:34, source: 3C454.3...
Processing scan 0028, time: 1/01:06:14-01/01:10:24, source: CTA102...
Processing scan 0029, time: 1/01:10:55-01/01:15:25, source: 3C454.3...
Processing scan 0030, time: 1/01:31:04-01/01:34:25, source: CTA102...
Processing scan 0031, time: 1/01:34:55-01/01:38:55, source: 3C454.3...
Processing scan 0032, time: 1/02:00:45-01/02:04:14, source: 3C454.3...
Processing scan 0033, time: 1/02:15:05-01/02:19:14, source: CTA102...
Processing scan 0034, time: 1/02:19:44-01/02:23:15, source: 3C454.3...
Processing scan 0035, time: 1/02:54:55-01/02:58:04, source: CTA102...
Processing scan 0036, time: 1/02:58:44-01/03:02:14, source: 3C454.3...
Processing scan 0037, time: 1/03:37:45-01/03:41:05, source: CTA102...
Processing scan 0038, time: 1/03:41:34-01/03:45:05, source: 3C454.3...
Processing scan 0039, time: 1/04:24:35-01/04:27:55, source: CTA102...
Processing scan 0040, time: 1/04:28:24-01/04:31:55, source: 3C454.3...
Processing scan 0041, time: 1/05:59:14-01/06:02:35, source: 3C454.3...
Processing scan 0042, time: 1/10:42:24-01/10:46:54, source: 3C273...
Processing scan 0043, time: 1/11:27:24-01/11:31:45, source: 3C273...
Processing scan 0044, time: 1/11:32:25-01/11:35:44, source: 3C279...
Processing scan 0045, time: 1/13:12:14-01/13:16:25, source: 3C273...
Processing scan 0046, time: 1/13:17:04-01/13:21:24, source: 3C279...
Processing scan 0047, time: 1/14:20:04-01/14:24:15, source: 3C273...
Processing scan 0048, time: 1/14:24:44-01/14:29:14, source: 3C279...
Processing scan 0049, time: 1/15:15:55-01/15:20:05, source: 3C273...
Processing scan 0050, time: 1/15:20:35-01/15:25:05, source: 3C279...
Processing scan 0051, time: 1/15:40:24-01/15:44:04, source: 1633+382...
Processing scan 0052, time: 1/15:44:25-01/15:47:04, source: 3C345...
Processing scan 0053, time: 1/16:27:35-01/16:30:55, source: 3C273...
Processing scan 0054, time: 1/16:31:24-01/16:34:55, source: 3C279...
Processing scan 0055, time: 1/16:50:15-01/16:53:54, source: 1633+382...
Processing scan 0056, time: 1/16:54:05-01/16:56:55, source: 3C345...
Processing scan 0057, time: 1/17:25:34-01/17:29:45, source: 3C273...
Processing scan 0058, time: 1/17:30:04-01/17:34:44, source: 3C279...
Processing scan 0059, time: 1/17:50:04-01/17:53:44, source: 1633+382...
Processing scan 0060, time: 1/17:54:05-01/17:56:45, source: 3C345...
Processing scan 0061, time: 1/18:25:24-01/18:29:35, source: 3C273...
Processing scan 0062, time: 1/18:29:55-01/18:34:34, source: 3C279...
Processing scan 0063, time: 1/18:50:04-01/18:53:35, source: 1633+382...
Processing scan 0064, time: 1/18:53:55-01/18:56:34, source: 3C345...

The reduced chi-square before and after the time-dependent D-term correction is 2.416 and 2.411, respectively.

Applying the estimated time-dependent D-Terms to 3C273 ...
FITLD2: Task FITLD  (release of 31DEC23) begins
FITLD2: Found 3C273    observed on 08-DEC-2018
FITLD2: Create timecal     .EDIT  .   1 (UV)  on disk  1  cno    4
FITLD2: UVFDAT at record           1
FITLD2: Index table matches visibility count, assuming it is good
FITLD2: Image=3C273     (UV)         Filename=timecal     .EDIT  .   1
FITLD2: Telescope=VLBA               Receiver=VLBA
FITLD2: Observer=BM462M              User #=  711
FITLD2: Observ. date=08-DEC-2018     Map date=21-JAN-2025
FITLD2: # visibilities      7621     Sort order  TB
FITLD2: Rand axes: UU-L  VV-L  WW-L  SUBARRAY  TIME1  INTTIM  ANTENNA1
FITLD2:            ANTENNA2
FITLD2: ----------------------------------------------------------------
FITLD2: Type    Pixels   Coord value      at Pixel    Coord incr   Rotat
FITLD2: COMPLEX      3   1.0000000E+00        1.00  1.000000E+00    0.00
FITLD2: STOKES       4  -1.0000000E+00        1.00 -1.000000E+00    0.00
FITLD2: FREQ         1   4.3115500E+10        1.00  2.560000E+08    0.00
FITLD2: IF           1   1.0000000E+00        1.00  1.000000E+00    0.00
FITLD2: RA           1    12 29 06.699729     1.00      3600.000    0.00
FITLD2: DEC          1    02 03 08.598280     1.00      3600.000    0.00
FITLD2: ----------------------------------------------------------------
FITLD2: Coordinate equinox 2000.00
FITLD2: Rest freq      0.000         Vel type: OPTICAL wrt YOU
FITLD2: Alt ref. value  0.00000E+00  wrt pixel    0.00
FITLD2: Cals applied:    0 DOCAL   0 DOBAND   1 DOPOL
FITLD2: Maximum version number of extension files of type HI is   1
FITLD2: Maximum version number of extension files of type NX is   1
FITLD2: Maximum version number of extension files of type FQ is   1
FITLD2: Maximum version number of extension files of type AN is   1
FITLD2: Appears to have ended successfully
FITLD2: localhos 31DEC23 TST: Cpu=      0.1  Real=      0  IO=         5
FITTP2: Task FITTP  (release of 31DEC23) begins
FITTP2: Writing to disk file: a:bm462m.q.tdcal.timecal.iter1.3C273.uvf
FITTP2: Writing UV data: User  711 Disk 1  Name timecal.EDIT.1
FITTP2: Writing HI file
FITTP2: Now writing the uv data
FITTP2: Writing binary table of type NX
FITTP2: Writing binary table of type FQ
FITTP2: Writing binary table of type AN
FITTP2: Writing end-of-file marks
FITTP2: Appears to have ended successfully
FITTP2: localhos 31DEC23 TST: Cpu=      0.0  Real=      0  IO=         5

Applying the estimated time-dependent D-Terms to 3C279 ...
FITLD2: Task FITLD  (release of 31DEC23) begins
FITLD2: Found 3C279    observed on 08-DEC-2018
FITLD2: Create timecal     .EDIT  .   1 (UV)  on disk  1  cno    4
FITLD2: UVFDAT at record           1
FITLD2: Index table matches visibility count, assuming it is good
FITLD2: Image=3C279     (UV)         Filename=timecal     .EDIT  .   1
FITLD2: Telescope=VLBA               Receiver=VLBA
FITLD2: Observer=BM462M              User #=  711
FITLD2: Observ. date=08-DEC-2018     Map date=21-JAN-2025
FITLD2: # visibilities      7885     Sort order  TB
FITLD2: Rand axes: UU-L  VV-L  WW-L  SUBARRAY  TIME1  INTTIM  ANTENNA1
FITLD2:            ANTENNA2
FITLD2: ----------------------------------------------------------------
FITLD2: Type    Pixels   Coord value      at Pixel    Coord incr   Rotat
FITLD2: COMPLEX      3   1.0000000E+00        1.00  1.000000E+00    0.00
FITLD2: STOKES       4  -1.0000000E+00        1.00 -1.000000E+00    0.00
FITLD2: FREQ         1   4.3115500E+10        1.00  2.560000E+08    0.00
FITLD2: IF           1   1.0000000E+00        1.00  1.000000E+00    0.00
FITLD2: RA           1    12 56 11.166567     1.00      3600.000    0.00
FITLD2: DEC          1   -05 47 21.524811     1.00      3600.000    0.00
FITLD2: ----------------------------------------------------------------
FITLD2: Coordinate equinox 2000.00
FITLD2: Rest freq      0.000         Vel type: OPTICAL wrt YOU
FITLD2: Alt ref. value  0.00000E+00  wrt pixel    0.00
FITLD2: Cals applied:    0 DOCAL   0 DOBAND   1 DOPOL
FITLD2: Maximum version number of extension files of type HI is   1
FITLD2: Maximum version number of extension files of type NX is   1
FITLD2: Maximum version number of extension files of type FQ is   1
FITLD2: Maximum version number of extension files of type AN is   1
FITLD2: Appears to have ended successfully
FITLD2: localhos 31DEC23 TST: Cpu=      0.1  Real=      0  IO=         5
FITTP2: Task FITTP  (release of 31DEC23) begins
FITTP2: Writing to disk file: a:bm462m.q.tdcal.timecal.iter1.3C279.uvf
FITTP2: Writing UV data: User  711 Disk 1  Name timecal.EDIT.1
FITTP2: Writing HI file
FITTP2: Now writing the uv data
FITTP2: Writing binary table of type NX
FITTP2: Writing binary table of type FQ
FITTP2: Writing binary table of type AN
FITTP2: Writing end-of-file marks
FITTP2: Appears to have ended successfully
FITTP2: localhos 31DEC23 TST: Cpu=      0.0  Real=      0  IO=         5

Applying the estimated time-dependent D-Terms to 3C345 ...
LOGFILE FOR USER  711 GETTING LARGE: USE PRTMSG AND CLRMSG NOW!         
FITLD2: Task FITLD  (release of 31DEC23) begins
FITLD2: Found 3C345    observed on 08-DEC-2018
FITLD2: Create timecal     .EDIT  .   1 (UV)  on disk  1  cno    4
FITLD2: UVFDAT at record           1
FITLD2: Index table matches visibility count, assuming it is good
FITLD2: Image=3C345     (UV)         Filename=timecal     .EDIT  .   1
FITLD2: Telescope=VLBA               Receiver=VLBA
FITLD2: Observer=BM462M              User #=  711
FITLD2: Observ. date=08-DEC-2018     Map date=21-JAN-2025
FITLD2: # visibilities      8762     Sort order  TB
FITLD2: Rand axes: UU-L  VV-L  WW-L  SUBARRAY  TIME1  INTTIM  ANTENNA1
FITLD2:            ANTENNA2
FITLD2: ----------------------------------------------------------------
FITLD2: Type    Pixels   Coord value      at Pixel    Coord incr   Rotat
FITLD2: COMPLEX      3   1.0000000E+00        1.00  1.000000E+00    0.00
FITLD2: STOKES       4  -1.0000000E+00        1.00 -1.000000E+00    0.00
FITLD2: FREQ         1   4.3115500E+10        1.00  2.560000E+08    0.00
FITLD2: IF           1   1.0000000E+00        1.00  1.000000E+00    0.00
FITLD2: RA           1    16 42 58.809963     1.00      3600.000    0.00
FITLD2: DEC          1    39 48 36.994019     1.00      3600.000    0.00
FITLD2: ----------------------------------------------------------------
FITLD2: Coordinate equinox 2000.00
FITLD2: Rest freq      0.000         Vel type: OPTICAL wrt YOU
FITLD2: Alt ref. value  0.00000E+00  wrt pixel    0.00
FITLD2: Cals applied:    0 DOCAL   0 DOBAND   1 DOPOL
FITLD2: Maximum version number of extension files of type HI is   1
FITLD2: Maximum version number of extension files of type NX is   1
FITLD2: Maximum version number of extension files of type FQ is   1
FITLD2: Maximum version number of extension files of type AN is   1
FITLD2: Appears to have ended successfully
FITLD2: localhos 31DEC23 TST: Cpu=      0.1  Real=      0  IO=         5
FITTP2: Task FITTP  (release of 31DEC23) begins
FITTP2: Writing to disk file: a:bm462m.q.tdcal.timecal.iter1.3C345.uvf
FITTP2: Writing UV data: User  711 Disk 1  Name timecal.EDIT.1
FITTP2: Writing HI file
FITTP2: Now writing the uv data
FITTP2: Writing binary table of type NX
FITTP2: Writing binary table of type FQ
FITTP2: Writing binary table of type AN
FITTP2: Writing end-of-file marks
FITTP2: Appears to have ended successfully
FITTP2: localhos 31DEC23 TST: Cpu=      0.0  Real=      0  IO=         5

Applying the estimated time-dependent D-Terms to 1633+382 ...
FITLD2: Task FITLD  (release of 31DEC23) begins
FITLD2: Found 1633+382 observed on 08-DEC-2018
FITLD2: Create timecal     .EDIT  .   1 (UV)  on disk  1  cno    4
FITLD2: UVFDAT at record           1
FITLD2: Index table matches visibility count, assuming it is good
FITLD2: Image=1633+382  (UV)         Filename=timecal     .EDIT  .   1
FITLD2: Telescope=VLBA               Receiver=VLBA
FITLD2: Observer=BM462M              User #=  711
FITLD2: Observ. date=08-DEC-2018     Map date=21-JAN-2025
FITLD2: # visibilities      9829     Sort order  TB
FITLD2: Rand axes: UU-L  VV-L  WW-L  SUBARRAY  TIME1  INTTIM  ANTENNA1
FITLD2:            ANTENNA2
FITLD2: ----------------------------------------------------------------
FITLD2: Type    Pixels   Coord value      at Pixel    Coord incr   Rotat
FITLD2: COMPLEX      3   1.0000000E+00        1.00  1.000000E+00    0.00
FITLD2: STOKES       4  -1.0000000E+00        1.00 -1.000000E+00    0.00
FITLD2: FREQ         1   4.3115500E+10        1.00  2.560000E+08    0.00
FITLD2: IF           1   1.0000000E+00        1.00  1.000000E+00    0.00
FITLD2: RA           1    16 35 15.492975     1.00      3600.000    0.00
FITLD2: DEC          1    38 08 04.500430     1.00      3600.000    0.00
FITLD2: ----------------------------------------------------------------
FITLD2: Coordinate equinox 2000.00
FITLD2: Rest freq      0.000         Vel type: OPTICAL wrt YOU
FITLD2: Alt ref. value  0.00000E+00  wrt pixel    0.00
FITLD2: Cals applied:    0 DOCAL   0 DOBAND   1 DOPOL
FITLD2: Maximum version number of extension files of type HI is   1
FITLD2: Maximum version number of extension files of type NX is   1
FITLD2: Maximum version number of extension files of type FQ is   1
FITLD2: Maximum version number of extension files of type AN is   1
FITLD2: Appears to have ended successfully
FITLD2: localhos 31DEC23 TST: Cpu=      0.1  Real=      0  IO=         5
        f
FITTP2: Task FITTP  (release of 31DEC23) begins
FITTP2: Writing to disk file: a:bm462m.q.tdcal.timecal.iter1.1633+382.uvf
FITTP2: Writing UV data: User  711 Disk 1  Name timecal.EDIT.1
FITTP2: Writing HI file
FITTP2: Now writing the uv data
FITTP2: Writing binary table of type NX
FITTP2: Writing binary table of type FQ
FITTP2: Writing binary table of type AN
FITTP2: Writing end-of-file marks
FITTP2: Appears to have ended successfully
FITTP2: localhos 31DEC23 TST: Cpu=      0.0  Real=      0  IO=         5

Applying the estimated time-dependent D-Terms to 3C454.3 ...
FITLD2: Task FITLD  (release of 31DEC23) begins
FITLD2: Found 3C454.3  observed on 08-DEC-2018
FITLD2: Create timecal     .EDIT  .   1 (UV)  on disk  1  cno    4
FITLD2: UVFDAT at record           1
FITLD2: Index table matches visibility count, assuming it is good
FITLD2: Image=3C454.3   (UV)         Filename=timecal     .EDIT  .   1
FITLD2: Telescope=VLBA               Receiver=VLBA
FITLD2: Observer=BM462M              User #=  711
FITLD2: Observ. date=08-DEC-2018     Map date=21-JAN-2025
FITLD2: # visibilities     12224     Sort order  TB
FITLD2: Rand axes: UU-L  VV-L  WW-L  SUBARRAY  TIME1  INTTIM  ANTENNA1
FITLD2:            ANTENNA2
FITLD2: ----------------------------------------------------------------
FITLD2: Type    Pixels   Coord value      at Pixel    Coord incr   Rotat
FITLD2: COMPLEX      3   1.0000000E+00        1.00  1.000000E+00    0.00
FITLD2: STOKES       4  -1.0000000E+00        1.00 -1.000000E+00    0.00
FITLD2: FREQ         1   4.3115500E+10        1.00  2.560000E+08    0.00
FITLD2: IF           1   1.0000000E+00        1.00  1.000000E+00    0.00
FITLD2: RA           1    22 53 57.747936     1.00      3600.000    0.00
FITLD2: DEC          1    16 08 53.560928     1.00      3600.000    0.00
FITLD2: ----------------------------------------------------------------
FITLD2: Coordinate equinox 2000.00
FITLD2: Rest freq      0.000         Vel type: OPTICAL wrt YOU
FITLD2: Alt ref. value  0.00000E+00  wrt pixel    0.00
FITLD2: Cals applied:    0 DOCAL   0 DOBAND   1 DOPOL
FITLD2: Maximum version number of extension files of type HI is   1
FITLD2: Maximum version number of extension files of type NX is   1
FITLD2: Maximum version number of extension files of type FQ is   1
FITLD2: Maximum version number of extension files of type AN is   1
FITLD2: Appears to have ended successfully
FITLD2: localhos 31DEC23 TST: Cpu=      0.1  Real=      0  IO=         5
FITTP2: Task FITTP  (release of 31DEC23) begins
FITTP2: Writing to disk file: a:bm462m.q.tdcal.timecal.iter1.3C454.3.uvf
FITTP2: Writing UV data: User  711 Disk 1  Name timecal.EDIT.1
FITTP2: Writing HI file
FITTP2: Now writing the uv data
FITTP2: Writing binary table of type NX
FITTP2: Writing binary table of type FQ
FITTP2: Writing binary table of type AN
FITTP2: Writing end-of-file marks
FITTP2: Appears to have ended successfully
FITTP2: localhos 31DEC23 TST: Cpu=      0.0  Real=      0  IO=         5

Applying the estimated time-dependent D-Terms to CTA102 ...
FITLD2: Task FITLD  (release of 31DEC23) begins
FITLD2: Found CTA102   observed on 08-DEC-2018
FITLD2: Create timecal     .EDIT  .   1 (UV)  on disk  1  cno    4
FITLD2: UVFDAT at record           1
FITLD2: Index table matches visibility count, assuming it is good
FITLD2: Image=CTA102    (UV)         Filename=timecal     .EDIT  .   1
FITLD2: Telescope=VLBA               Receiver=VLBA
FITLD2: Observer=BM462M              User #=  711
FITLD2: Observ. date=08-DEC-2018     Map date=21-JAN-2025
FITLD2: # visibilities     10225     Sort order  TB
FITLD2: Rand axes: UU-L  VV-L  WW-L  SUBARRAY  TIME1  INTTIM  ANTENNA1
FITLD2:            ANTENNA2
FITLD2: ----------------------------------------------------------------
FITLD2: Type    Pixels   Coord value      at Pixel    Coord incr   Rotat
FITLD2: COMPLEX      3   1.0000000E+00        1.00  1.000000E+00    0.00
FITLD2: STOKES       4  -1.0000000E+00        1.00 -1.000000E+00    0.00
FITLD2: FREQ         1   4.3115500E+10        1.00  2.560000E+08    0.00
FITLD2: IF           1   1.0000000E+00        1.00  1.000000E+00    0.00
FITLD2: RA           1    22 32 36.408905     1.00      3600.000    0.00
FITLD2: DEC          1    11 43 50.903938     1.00      3600.000    0.00
FITLD2: ----------------------------------------------------------------
FITLD2: Coordinate equinox 2000.00
FITLD2: Rest freq      0.000         Vel type: OPTICAL wrt YOU
FITLD2: Alt ref. value  0.00000E+00  wrt pixel    0.00
FITLD2: Cals applied:    0 DOCAL   0 DOBAND   1 DOPOL
FITLD2: Maximum version number of extension files of type HI is   1
FITLD2: Maximum version number of extension files of type NX is   1
FITLD2: Maximum version number of extension files of type FQ is   1
FITLD2: Maximum version number of extension files of type AN is   1
FITLD2: Appears to have ended successfully
FITLD2: localhos 31DEC23 TST: Cpu=      0.1  Real=      0  IO=         5
FITTP2: Task FITTP  (release of 31DEC23) begins
FITTP2: Writing to disk file: a:bm462m.q.tdcal.timecal.iter1.CTA102.uvf
FITTP2: Writing UV data: User  711 Disk 1  Name timecal.EDIT.1
FITTP2: Writing HI file
FITTP2: Now writing the uv data
FITTP2: Writing binary table of type NX
FITTP2: Writing binary table of type FQ
FITTP2: Writing binary table of type AN
FITTP2: Writing end-of-file marks
FITTP2: Appears to have ended successfully
FITTP2: localhos 31DEC23 TST: Cpu=      0.0  Real=      0  IO=         5
FITLD2: Task FITLD  (release of 31DEC23) begins
FITLD2: Found 3C273    observed on 08-DEC-2018
FITLD2: Create 3C273       .EDIT  .   1 (UV)  on disk  1  cno    4
FITLD2: UVFDAT at record           1
FITLD2: Index table matches visibility count, assuming it is good
FITLD2: Image=3C273     (UV)         Filename=3C273       .EDIT  .   1
FITLD2: Telescope=VLBA               Receiver=VLBA
FITLD2: Observer=BM462M              User #=  711
FITLD2: Observ. date=08-DEC-2018     Map date=21-JAN-2025
FITLD2: # visibilities      7621     Sort order  TB
FITLD2: Rand axes: UU-L  VV-L  WW-L  SUBARRAY  TIME1  INTTIM  ANTENNA1
FITLD2:            ANTENNA2
FITLD2: ----------------------------------------------------------------
FITLD2: Type    Pixels   Coord value      at Pixel    Coord incr   Rotat
FITLD2: COMPLEX      3   1.0000000E+00        1.00  1.000000E+00    0.00
FITLD2: STOKES       4  -1.0000000E+00        1.00 -1.000000E+00    0.00
FITLD2: FREQ         1   4.3115500E+10        1.00  2.560000E+08    0.00
FITLD2: IF           1   1.0000000E+00        1.00  1.000000E+00    0.00
FITLD2: RA           1    12 29 06.699729     1.00      3600.000    0.00
FITLD2: DEC          1    02 03 08.598280     1.00      3600.000    0.00
FITLD2: ----------------------------------------------------------------
FITLD2: Coordinate equinox 2000.00
FITLD2: Rest freq      0.000         Vel type: OPTICAL wrt YOU
FITLD2: Alt ref. value  0.00000E+00  wrt pixel    0.00
FITLD2: Cals applied:    0 DOCAL   0 DOBAND   1 DOPOL
FITLD2: Maximum version number of extension files of type HI is   1
FITLD2: Maximum version number of extension files of type NX is   1
FITLD2: Maximum version number of extension files of type FQ is   1
FITLD2: Maximum version number of extension files of type AN is   1
FITLD2: Appears to have ended successfully
FITLD2: localhos 31DEC23 TST: Cpu=      0.1  Real=      0  IO=         5

Getting data for 6 sources for 1 IFs...
FITLD2: Task FITLD  (release of 31DEC23) begins
FITLD2: Found 3C273    observed on 08-DEC-2018
FITLD2: Create 3C273       .EDIT  .   1 (UV)  on disk  1  cno    4
FITLD2: UVFDAT at record           1
LOGFILE FOR USER  711 GETTING LARGE: USE PRTMSG AND CLRMSG NOW!         
FITLD2: Index table matches visibility count, assuming it is good
FITLD2: Image=3C273     (UV)         Filename=3C273       .EDIT  .   1
FITLD2: Telescope=VLBA               Receiver=VLBA
FITLD2: Observer=BM462M              User #=  711
FITLD2: Observ. date=08-DEC-2018     Map date=21-JAN-2025
[...]
FITTP2: Appears to have ended successfully
FITTP2: localhos 31DEC23 TST: Cpu=      0.0  Real=      0  IO=         5

Applying the estimated time-dependent D-Terms to 3C454.3 ...
FITLD2: Task FITLD  (release of 31DEC23) begins
FITLD2: Found 3C454.3  observed on 08-DEC-2018
FITLD2: Create timecal     .EDIT  .   1 (UV)  on disk  1  cno    4
FITLD2: UVFDAT at record           1
FITLD2: Index table matches visibility count, assuming it is good
FITLD2: Image=3C454.3   (UV)         Filename=timecal     .EDIT  .   1
FITLD2: Telescope=VLBA               Receiver=VLBA
FITLD2: Observer=BM462M              User #=  711
FITLD2: Observ. date=08-DEC-2018     Map date=21-JAN-2025
FITLD2: # visibilities     12224     Sort order  TB
FITLD2: Rand axes: UU-L  VV-L  WW-L  SUBARRAY  TIME1  INTTIM  ANTENNA1
FITLD2:            ANTENNA2
FITLD2: ----------------------------------------------------------------
FITLD2: Type    Pixels   Coord value      at Pixel    Coord incr   Rotat
FITLD2: COMPLEX      3   1.0000000E+00        1.00  1.000000E+00    0.00
FITLD2: STOKES       4  -1.0000000E+00        1.00 -1.000000E+00    0.00
FITLD2: FREQ         1   4.3115500E+10        1.00  2.560000E+08    0.00
FITLD2: IF           1   1.0000000E+00        1.00  1.000000E+00    0.00
FITLD2: RA           1    22 53 57.747936     1.00      3600.000    0.00
FITLD2: DEC          1    16 08 53.560928     1.00      3600.000    0.00
FITLD2: ----------------------------------------------------------------
FITLD2: Coordinate equinox 2000.00
FITLD2: Rest freq      0.000         Vel type: OPTICAL wrt YOU
FITLD2: Alt ref. value  0.00000E+00  wrt pixel    0.00
FITLD2: Cals applied:    0 DOCAL   0 DOBAND   1 DOPOL
FITLD2: Maximum version number of extension files of type HI is   1
FITLD2: Maximum version number of extension files of type NX is   1
FITLD2: Maximum version number of extension files of type FQ is   1
FITLD2: Maximum version number of extension files of type AN is   1
FITLD2: Appears to have ended successfully
FITLD2: localhos 31DEC23 TST: Cpu=      0.1  Real=      0  IO=         5
        f
FITTP2: Task FITTP  (release of 31DEC23) begins
FITTP2: Writing to disk file: a:bm462m.q.tdcal.timecal.iter10.3C454.3.uvf
FITTP2: Writing UV data: User  711 Disk 1  Name timecal.EDIT.1
FITTP2: Writing HI file
FITTP2: Now writing the uv data
FITTP2: Writing binary table of type NX
FITTP2: Writing binary table of type FQ
FITTP2: Writing binary table of type AN
FITTP2: Writing end-of-file marks
FITTP2: Appears to have ended successfully
FITTP2: localhos 31DEC23 TST: Cpu=      0.0  Real=      0  IO=         5

Applying the estimated time-dependent D-Terms to CTA102 ...
FITLD2: Task FITLD  (release of 31DEC23) begins
FITLD2: Found CTA102   observed on 08-DEC-2018
FITLD2: Create timecal     .EDIT  .   1 (UV)  on disk  1  cno    4
FITLD2: UVFDAT at record           1
FITLD2: Index table matches visibility count, assuming it is good
FITLD2: Image=CTA102    (UV)         Filename=timecal     .EDIT  .   1
FITLD2: Telescope=VLBA               Receiver=VLBA
FITLD2: Observer=BM462M              User #=  711
FITLD2: Observ. date=08-DEC-2018     Map date=21-JAN-2025
FITLD2: # visibilities     10225     Sort order  TB
FITLD2: Rand axes: UU-L  VV-L  WW-L  SUBARRAY  TIME1  INTTIM  ANTENNA1
FITLD2:            ANTENNA2
FITLD2: ----------------------------------------------------------------
FITLD2: Type    Pixels   Coord value      at Pixel    Coord incr   Rotat
FITLD2: COMPLEX      3   1.0000000E+00        1.00  1.000000E+00    0.00
FITLD2: STOKES       4  -1.0000000E+00        1.00 -1.000000E+00    0.00
FITLD2: FREQ         1   4.3115500E+10        1.00  2.560000E+08    0.00
FITLD2: IF           1   1.0000000E+00        1.00  1.000000E+00    0.00
FITLD2: RA           1    22 32 36.408905     1.00      3600.000    0.00
FITLD2: DEC          1    11 43 50.903938     1.00      3600.000    0.00
FITLD2: ----------------------------------------------------------------
FITLD2: Coordinate equinox 2000.00
FITLD2: Rest freq      0.000         Vel type: OPTICAL wrt YOU
FITLD2: Alt ref. value  0.00000E+00  wrt pixel    0.00
FITLD2: Cals applied:    0 DOCAL   0 DOBAND   1 DOPOL
FITLD2: Maximum version number of extension files of type HI is   1
FITLD2: Maximum version number of extension files of type NX is   1
FITLD2: Maximum version number of extension files of type FQ is   1
FITLD2: Maximum version number of extension files of type AN is   1
FITLD2: Appears to have ended successfully
FITLD2: localhos 31DEC23 TST: Cpu=      0.1  Real=      0  IO=         5
FITTP2: Task FITTP  (release of 31DEC23) begins
FITTP2: Writing to disk file: a:bm462m.q.tdcal.timecal.iter10.CTA102.uvf
FITTP2: Writing UV data: User  711 Disk 1  Name timecal.EDIT.1
FITTP2: Writing HI file
FITTP2: Now writing the uv data
FITTP2: Writing binary table of type NX
FITTP2: Writing binary table of type FQ
FITTP2: Writing binary table of type AN
FITTP2: Writing end-of-file marks
FITTP2: Appears to have ended successfully
FITTP2: localhos 31DEC23 TST: Cpu=      0.0  Real=      0  IO=         5

Applying the estimated time-dependent D-Terms to 3C273 ...
FITLD2: Task FITLD  (release of 31DEC23) begins
FITLD2: Found 3C273    observed on 08-DEC-2018
FITLD2: Create timecal     .EDIT  .   1 (UV)  on disk  1  cno    4
FITLD2: UVFDAT at record           1
FITLD2: Index table matches visibility count, assuming it is good
FITLD2: Image=3C273     (UV)         Filename=timecal     .EDIT  .   1
FITLD2: Telescope=VLBA               Receiver=VLBA
FITLD2: Observer=BM462M              User #=  711
FITLD2: Observ. date=08-DEC-2018     Map date=21-JAN-2025
FITLD2: # visibilities      7621     Sort order  TB
FITLD2: Rand axes: UU-L  VV-L  WW-L  SUBARRAY  TIME1  INTTIM  ANTENNA1
FITLD2:            ANTENNA2
FITLD2: ----------------------------------------------------------------
FITLD2: Type    Pixels   Coord value      at Pixel    Coord incr   Rotat
FITLD2: COMPLEX      3   1.0000000E+00        1.00  1.000000E+00    0.00
FITLD2: STOKES       4  -1.0000000E+00        1.00 -1.000000E+00    0.00
FITLD2: FREQ         1   4.3115500E+10        1.00  2.560000E+08    0.00
FITLD2: IF           1   1.0000000E+00        1.00  1.000000E+00    0.00
FITLD2: RA           1    12 29 06.699729     1.00      3600.000    0.00
FITLD2: DEC          1    02 03 08.598280     1.00      3600.000    0.00
FITLD2: ----------------------------------------------------------------
FITLD2: Coordinate equinox 2000.00
FITLD2: Rest freq      0.000         Vel type: OPTICAL wrt YOU
FITLD2: Alt ref. value  0.00000E+00  wrt pixel    0.00
     3600.000    0.00
FITLD2: Cals applied:    0 DOCAL   0 DOBAND   1 DOPOL
FITLD2: Maximum version number of extension files of type HI is   1
FITLD2: Maximum version number of extension files of type NX is   1
FITLD2: Maximum version number of extension files of type FQ is   1
FITLD2: Maximum version number of extension files of type AN is   1
FITLD2: Appears to have ended successfully
FITLD2: localhos 31DEC23 TST: Cpu=      0.1  Real=      0  IO=         5
FITTP2: Task FITTP  (release of 31DEC23) begins
FITTP2: Writing to disk file: a:bm462m.q.tdcal.timecal.final.3C273.uvf
FITTP2: Writing UV data: User  711 Disk 1  Name timecal.EDIT.1
FITTP2: Writing HI file
FITTP2: Now writing the uv data
FITTP2: Writing binary table of type NX
FITTP2: Writing binary table of type FQ
FITTP2: Writing binary table of type AN
FITTP2: Writing end-of-file marks
FITTP2: Appears to have ended successfully
FITTP2: localhos 31DEC23 TST: Cpu=      0.0  Real=      0  IO=         5

Applying the estimated time-dependent D-Terms to 3C279 ...
FITLD2: Task FITLD  (release of 31DEC23) begins
FITLD2: Found 3C279    observed on 08-DEC-2018
FITLD2: Create timecal     .EDIT  .   1 (UV)  on disk  1  cno    4
FITLD2: UVFDAT at record           1
FITLD2: Index table matches visibility count, assuming it is good
FITLD2: Image=3C279     (UV)         Filename=timecal     .EDIT  .   1
FITLD2: Telescope=VLBA               Receiver=VLBA
FITLD2: Observer=BM462M              User #=  711
FITLD2: Observ. date=08-DEC-2018     Map date=21-JAN-2025
FITLD2: # visibilities      7885     Sort order  TB
FITLD2: Rand axes: UU-L  VV-L  WW-L  SUBARRAY  TIME1  INTTIM  ANTENNA1
FITLD2:            ANTENNA2
FITLD2: ----------------------------------------------------------------
FITLD2: Type    Pixels   Coord value      at Pixel    Coord incr   Rotat
FITLD2: COMPLEX      3   1.0000000E+00        1.00  1.000000E+00    0.00
FITLD2: STOKES       4  -1.0000000E+00        1.00 -1.000000E+00    0.00
FITLD2: FREQ         1   4.3115500E+10        1.00  2.560000E+08    0.00
FITLD2: IF           1   1.0000000E+00        1.00  1.000000E+00    0.00
FITLD2: RA           1    12 56 11.166567     1.00      3600.000    0.00
FITLD2: DEC          1   -05 47 21.524811     1.00      3600.000    0.00
FITLD2: ----------------------------------------------------------------
FITLD2: Coordinate equinox 2000.00
FITLD2: Rest freq      0.000         Vel type: OPTICAL wrt YOU
FITLD2: Alt ref. value  0.00000E+00  wrt pixel    0.00
FITLD2: Cals applied:    0 DOCAL   0 DOBAND   1 DOPOL
FITLD2: Maximum version number of extension files of type HI is   1
FITLD2: Maximum version number of extension files of type NX is   1
FITLD2: Maximum version number of extension files of type FQ is   1
FITLD2: Maximum version number of extension files of type AN is   1
FITLD2: Appears to have ended successfully
FITLD2: localhos 31DEC23 TST: Cpu=      0.1  Real=      0  IO=         5
FITTP2: Task FITTP  (release of 31DEC23) begins
FITTP2: Writing to disk file: a:bm462m.q.tdcal.timecal.final.3C279.uvf
FITTP2: Writing UV data: User  711 Disk 1  Name timecal.EDIT.1
FITTP2: Writing HI file
FITTP2: Now writing the uv data
FITTP2: Writing binary table of type NX
FITTP2: Writing binary table of type FQ
FITTP2: Writing binary table of type AN
FITTP2: Writing end-of-file marks
FITTP2: Appears to have ended successfully
FITTP2: localhos 31DEC23 TST: Cpu=      0.0  Real=      0  IO=         5

Applying the estimated time-dependent D-Terms to 3C345 ...
FITLD2: Task FITLD  (release of 31DEC23) begins
FITLD2: Found 3C345    observed on 08-DEC-2018
FITLD2: Create timecal     .EDIT  .   1 (UV)  on disk  1  cno    4
FITLD2: UVFDAT at record           1
FITLD2: Index table matches visibility count, assuming it is good
FITLD2: Image=3C345     (UV)         Filename=timecal     .EDIT  .   1
FITLD2: Telescope=VLBA               Receiver=VLBA
FITLD2: Observer=BM462M              User #=  711
FITLD2: Observ. date=08-DEC-2018     Map date=21-JAN-2025
FITLD2: # visibilities      8762     Sort order  TB
FITLD2: Rand axes: UU-L  VV-L  WW-L  SUBARRAY  TIME1  INTTIM  ANTENNA1
FITLD2:            ANTENNA2
FITLD2: ----------------------------------------------------------------
FITLD2: Type    Pixels   Coord value      at Pixel    Coord incr   Rotat
FITLD2: COMPLEX      3   1.0000000E+00        1.00  1.000000E+00    0.00
FITLD2: STOKES       4  -1.0000000E+00        1.00 -1.000000E+00    0.00
FITLD2: FREQ         1   4.3115500E+10        1.00  2.560000E+08    0.00
FITLD2: IF           1   1.0000000E+00        1.00  1.000000E+00    0.00
FITLD2: RA           1    16 42 58.809963     1.00      3600.000    0.00
FITLD2: DEC          1    39 48 36.994019     1.00      3600.000    0.00
FITLD2: ----------------------------------------------------------------
FITLD2: Coordinate equinox 2000.00
FITLD2: Rest freq      0.000         Vel type: OPTICAL wrt YOU
FITLD2: Alt ref. value  0.00000E+00  wrt pixel    0.00
FITLD2: Cals applied:    0 DOCAL   0 DOBAND   1 DOPOL
FITLD2: Maximum version number of extension files of type HI is   1
FITLD2: Maximum version number of extension files of type NX is   1
FITLD2: Maximum version number of extension files of type FQ is   1
FITLD2: Maximum version number of extension files of type AN is   1
FITLD2: Appears to have ended successfully
FITLD2: localhos 31DEC23 TST: Cpu=      0.1  Real=      0  IO=         5
FITTP2: Task FITTP  (release of 31DEC23) begins
FITTP2: Writing to disk file: a:bm462m.q.tdcal.timecal.final.3C345.uvf
FITTP2: Writing UV data: User  711 Disk 1  Name timecal.EDIT.1
FITTP2: Writing HI file
FITTP2: Now writing the uv data
FITTP2: Writing binary table of type NX
FITTP2: Writing binary table of type FQ
FITTP2: Writing binary table of type AN
LOGFILE FOR USER  711 GETTING LARGE: USE PRTMSG AND CLRMSG NOW!         
FITTP2: Writing end-of-file marks
FITTP2: Appears to have ended successfully
FITTP2: localhos 31DEC23 TST: Cpu=      0.0  Real=      0  IO=         5

Applying the estimated time-dependent D-Terms to 1633+382 ...
FITLD2: Task FITLD  (release of 31DEC23) begins
FITLD2: Found 1633+382 observed on 08-DEC-2018
FITLD2: Create timecal     .EDIT  .   1 (UV)  on disk  1  cno    4
FITLD2: UVFDAT at record           1
FITLD2: Index table matches visibility count, assuming it is good
FITLD2: Image=1633+382  (UV)         Filename=timecal     .EDIT  .   1
FITLD2: Telescope=VLBA               Receiver=VLBA
FITLD2: Observer=BM462M              User #=  711
FITLD2: Observ. date=08-DEC-2018     Map date=21-JAN-2025
FITLD2: # visibilities      9829     Sort order  TB
FITLD2: Rand axes: UU-L  VV-L  WW-L  SUBARRAY  TIME1  INTTIM  ANTENNA1
FITLD2:            ANTENNA2
FITLD2: ----------------------------------------------------------------
FITLD2: Type    Pixels   Coord value      at Pixel    Coord incr   Rotat
FITLD2: COMPLEX      3   1.0000000E+00        1.00  1.000000E+00    0.00
FITLD2: STOKES       4  -1.0000000E+00        1.00 -1.000000E+00    0.00
FITLD2: FREQ         1   4.3115500E+10        1.00  2.560000E+08    0.00
FITLD2: IF           1   1.0000000E+00        1.00  1.000000E+00    0.00
FITLD2: RA           1    16 35 15.492975     1.00      3600.000    0.00
FITLD2: DEC          1    38 08 04.500430     1.00      3600.000    0.00
FITLD2: ----------------------------------------------------------------
FITLD2: Coordinate equinox 2000.00
FITLD2: Rest freq      0.000         Vel type: OPTICAL wrt YOU
FITLD2: Alt ref. value  0.00000E+00  wrt pixel    0.00
FITLD2: Cals applied:    0 DOCAL   0 DOBAND   1 DOPOL
FITLD2: Maximum version number of extension files of type HI is   1
FITLD2: Maximum version number of extension files of type NX is   1
FITLD2: Maximum version number of extension files of type FQ is   1
FITLD2: Maximum version number of extension files of type AN is   1
FITLD2: Appears to have ended successfully
FITLD2: localhos 31DEC23 TST: Cpu=      0.1  Real=      0  IO=         5
        f
FITTP2: Task FITTP  (release of 31DEC23) begins
FITTP2: Writing to disk file: a:bm462m.q.tdcal.timecal.final.1633+382.uvf
FITTP2: Writing UV data: User  711 Disk 1  Name timecal.EDIT.1
FITTP2: Writing HI file
FITTP2: Now writing the uv data
FITTP2: Writing binary table of type NX
FITTP2: Writing binary table of type FQ
FITTP2: Writing binary table of type AN
FITTP2: Writing end-of-file marks
FITTP2: Appears to have ended successfully
FITTP2: localhos 31DEC23 TST: Cpu=      0.0  Real=      0  IO=         5

Applying the estimated time-dependent D-Terms to 3C454.3 ...
FITLD2: Task FITLD  (release of 31DEC23) begins
FITLD2: Found 3C454.3  observed on 08-DEC-2018
FITLD2: Create timecal     .EDIT  .   1 (UV)  on disk  1  cno    4
FITLD2: UVFDAT at record           1
FITLD2: Index table matches visibility count, assuming it is good
FITLD2: Image=3C454.3   (UV)         Filename=timecal     .EDIT  .   1
FITLD2: Telescope=VLBA               Receiver=VLBA
FITLD2: Observer=BM462M              User #=  711
FITLD2: Observ. date=08-DEC-2018     Map date=21-JAN-2025
FITLD2: # visibilities     12224     Sort order  TB
FITLD2: Rand axes: UU-L  VV-L  WW-L  SUBARRAY  TIME1  INTTIM  ANTENNA1
FITLD2:            ANTENNA2
FITLD2: ----------------------------------------------------------------
FITLD2: Type    Pixels   Coord value      at Pixel    Coord incr   Rotat
FITLD2: COMPLEX      3   1.0000000E+00        1.00  1.000000E+00    0.00
FITLD2: STOKES       4  -1.0000000E+00        1.00 -1.000000E+00    0.00
FITLD2: FREQ         1   4.3115500E+10        1.00  2.560000E+08    0.00
FITLD2: IF           1   1.0000000E+00        1.00  1.000000E+00    0.00
FITLD2: RA           1    22 53 57.747936     1.00      3600.000    0.00
FITLD2: DEC          1    16 08 53.560928     1.00      3600.000    0.00
FITLD2: ----------------------------------------------------------------
FITLD2: Coordinate equinox 2000.00
FITLD2: Rest freq      0.000         Vel type: OPTICAL wrt YOU
FITLD2: Alt ref. value  0.00000E+00  wrt pixel    0.00
FITLD2: Cals applied:    0 DOCAL   0 DOBAND   1 DOPOL
FITLD2: Maximum version number of extension files of type HI is   1
FITLD2: Maximum version number of extension files of type NX is   1
FITLD2: Maximum version number of extension files of type FQ is   1
FITLD2: Maximum version number of extension files of type AN is   1
FITLD2: Appears to have ended successfully
FITLD2: localhos 31DEC23 TST: Cpu=      0.1  Real=      0  IO=         5
FITTP2: Task FITTP  (release of 31DEC23) begins
FITTP2: Writing to disk file: a:bm462m.q.tdcal.timecal.final.3C454.3.uvf
FITTP2: Writing UV data: User  711 Disk 1  Name timecal.EDIT.1
FITTP2: Writing HI file
FITTP2: Now writing the uv data
FITTP2: Writing binary table of type NX
FITTP2: Writing binary table of type FQ
FITTP2: Writing binary table of type AN
FITTP2: Writing end-of-file marks
FITTP2: Appears to have ended successfully
FITTP2: localhos 31DEC23 TST: Cpu=      0.0  Real=      0  IO=         5

Applying the estimated time-dependent D-Terms to CTA102 ...
FITLD2: Task FITLD  (release of 31DEC23) begins
FITLD2: Found CTA102   observed on 08-DEC-2018
FITLD2: Create timecal     .EDIT  .   1 (UV)  on disk  1  cno    4
FITLD2: UVFDAT at record           1
FITLD2: Index table matches visibility count, assuming it is good
FITLD2: Image=CTA102    (UV)         Filename=timecal     .EDIT  .   1
FITLD2: Telescope=VLBA               Receiver=VLBA
FITLD2: Observer=BM462M              User #=  711
FITLD2: Observ. date=08-DEC-2018     Map date=21-JAN-2025
FITLD2: # visibilities     10225     Sort order  TB
FITLD2: Rand axes: UU-L  VV-L  WW-L  SUBARRAY  TIME1  INTTIM  ANTENNA1
FITLD2:            ANTENNA2
FITLD2: ----------------------------------------------------------------
FITLD2: Type    Pixels   Coord value      at Pixel    Coord incr   Rotat
FITLD2: COMPLEX      3   1.0000000E+00        1.00  1.000000E+00    0.00
FITLD2: STOKES       4  -1.0000000E+00        1.00 -1.000000E+00    0.00
FITLD2: FREQ         1   4.3115500E+10        1.00  2.560000E+08    0.00
FITLD2: IF           1   1.0000000E+00        1.00  1.000000E+00    0.00
FITLD2: RA           1    22 32 36.408905     1.00      3600.000    0.00
FITLD2: DEC          1    11 43 50.903938     1.00      3600.000    0.00
FITLD2: ----------------------------------------------------------------
FITLD2: Coordinate equinox 2000.00
FITLD2: Rest freq      0.000         Vel type: OPTICAL wrt YOU
FITLD2: Alt ref. value  0.00000E+00  wrt pixel    0.00
FITLD2: Cals applied:    0 DOCAL   0 DOBAND   1 DOPOL
FITLD2: Maximum version number of extension files of type HI is   1
FITLD2: Maximum version number of extension files of type NX is   1
FITLD2: Maximum version number of extension files of type FQ is   1
FITLD2: Maximum version number of extension files of type AN is   1
FITLD2: Appears to have ended successfully
FITLD2: localhos 31DEC23 TST: Cpu=      0.1  Real=      0  IO=         5
FITTP2: Task FITTP  (release of 31DEC23) begins
FITTP2: Writing to disk file: a:bm462m.q.tdcal.timecal.final.CTA102.uvf
FITTP2: Writing UV data: User  711 Disk 1  Name timecal.EDIT.1
FITTP2: Writing HI file
FITTP2: Now writing the uv data
FITTP2: Writing binary table of type NX
FITTP2: Writing binary table of type FQ
FITTP2: Writing binary table of type AN
FITTP2: Writing end-of-file marks
FITTP2: Appears to have ended successfully
FITTP2: localhos 31DEC23 TST: Cpu=      0.0  Real=      0  IO=         5
